<?xml version="1.0" encoding="UTF-8"?>
<!DOCTYPE transitSchedule SYSTEM "http://www.matsim.org/files/dtd/transitSchedule_v2.dtd">

<transitSchedule>

	<transitStops>
		<stopFacility id="22483.link:pt_22483" x="386181.2482250745" y="3941401.972886102" linkRefId="pt_22483" name="青物横丁" isBlocking="false"/>
		<stopFacility id="22484.link:pt_22484" x="384470.26496207446" y="3948444.608226102" linkRefId="pt_22484" name="青山一丁目" isBlocking="false"/>
		<stopFacility id="22485.link:pt_22485" x="385591.5240760745" y="3948360.224856102" linkRefId="pt_22485" name="赤坂" isBlocking="false"/>
		<stopFacility id="22486.link:pt_22486" x="385675.0608520745" y="3948896.325716102" linkRefId="pt_22486" name="赤坂見附" isBlocking="false"/>
		<stopFacility id="22492.link:pt_22492" x="388914.8319980745" y="3951294.205716102" linkRefId="pt_22492" name="秋葉原" isBlocking="false"/>
		<stopFacility id="22493.link:pt_22493" x="384341.8040510745" y="3950607.903866102" linkRefId="pt_22493" name="曙橋" isBlocking="false"/>
		<stopFacility id="22494.link:pt_22494" x="376539.2045510745" y="3952015.9028561017" linkRefId="pt_22494" name="阿佐ケ谷" isBlocking="false"/>
		<stopFacility id="22495.link:pt_22495" x="391137.19302207447" y="3952639.7398161017" linkRefId="pt_22495" name="浅草" isBlocking="false"/>
		<stopFacility id="22496.link:pt_22496" x="390081.0032540745" y="3951173.4162361016" linkRefId="pt_22496" name="浅草橋" isBlocking="false"/>
		<stopFacility id="22498.link:pt_22498" x="386490.3054820745" y="3934862.986236102" linkRefId="pt_22498" name="穴守稲荷" isBlocking="false"/>
		<stopFacility id="22500.link:pt_22500" x="379760.8076610745" y="3953217.9694461017" linkRefId="pt_22500" name="新井薬師前" isBlocking="false"/>
		<stopFacility id="22501.link:pt_22501" x="390105.5454720745" y="3955358.051866102" linkRefId="pt_22501" name="荒川区役所前" isBlocking="false"/>
		<stopFacility id="22502.link:pt_22502" x="387066.8834290745" y="3957116.373836102" linkRefId="pt_22502" name="荒川車庫前" isBlocking="false"/>
		<stopFacility id="22503.link:pt_22503" x="389929.9799850745" y="3956097.684636102" linkRefId="pt_22503" name="荒川七丁目" isBlocking="false"/>
		<stopFacility id="22504.link:pt_22504" x="389954.9527630745" y="3955752.417136102" linkRefId="pt_22504" name="荒川二丁目" isBlocking="false"/>
		<stopFacility id="22505.link:pt_22505" x="387544.0971090745" y="3957085.151646102" linkRefId="pt_22505" name="荒川遊園地前" isBlocking="false"/>
		<stopFacility id="22506.link:pt_22506" x="388419.3646950745" y="3950890.915166102" linkRefId="pt_22506" name="淡路町" isBlocking="false"/>
		<stopFacility id="22507.link:pt_22507" x="386358.8430130745" y="3951693.648356102" linkRefId="pt_22507" name="飯田橋" isBlocking="false"/>
		<stopFacility id="22508.link:pt_22508" x="374583.5113110745" y="3954198.5279161017" linkRefId="pt_22508" name="井荻" isBlocking="false"/>
		<stopFacility id="22510.link:pt_22510" x="382577.5295610745" y="3937267.702716102" linkRefId="pt_22510" name="池上" isBlocking="false"/>
		<stopFacility id="22511.link:pt_22511" x="380896.2102610745" y="3945990.2729661018" linkRefId="pt_22511" name="池尻大橋" isBlocking="false"/>
		<stopFacility id="22512.link:pt_22512" x="379861.63010107446" y="3947079.6846461017" linkRefId="pt_22512" name="池ノ上" isBlocking="false"/>
		<stopFacility id="22513.link:pt_22513" x="383313.7170210745" y="3954781.238266102" linkRefId="pt_22513" name="池袋" isBlocking="false"/>
		<stopFacility id="22514.link:pt_22514" x="380975.47226107446" y="3940043.144016102" linkRefId="pt_22514" name="石川台" isBlocking="false"/>
		<stopFacility id="22520.link:pt_22520" x="385520.6507110745" y="3950461.872676102" linkRefId="pt_22520" name="市ケ谷" isBlocking="false"/>
		<stopFacility id="22524.link:pt_22524" x="389737.3731120745" y="3952717.3531961017" linkRefId="pt_22524" name="稲荷町" isBlocking="false"/>
		<stopFacility id="22526.link:pt_22526" x="389921.3674210745" y="3953709.5306061017" linkRefId="pt_22526" name="入谷" isBlocking="false"/>
		<stopFacility id="22527.link:pt_22527" x="389090.5597310745" y="3950961.272576102" linkRefId="pt_22527" name="岩本町" isBlocking="false"/>
		<stopFacility id="22528.link:pt_22528" x="389249.99605007446" y="3952961.139666102" linkRefId="pt_22528" name="上野" isBlocking="false"/>
		<stopFacility id="22529.link:pt_22529" x="388910.3848800745" y="3952304.894376102" linkRefId="pt_22529" name="上野広小路" isBlocking="false"/>
		<stopFacility id="22531.link:pt_22531" x="389458.87481107446" y="3953709.7741861017" linkRefId="pt_22531" name="鶯谷" isBlocking="false"/>
		<stopFacility id="22534.link:pt_22534" x="387336.4375210745" y="3948149.2162561016" linkRefId="pt_22534" name="内幸町" isBlocking="false"/>
		<stopFacility id="22535.link:pt_22535" x="380543.9692310745" y="3937637.166826102" linkRefId="pt_22535" name="鵜の木" isBlocking="false"/>
		<stopFacility id="22536.link:pt_22536" x="378095.3688910745" y="3946580.3930561016" linkRefId="pt_22536" name="梅ケ丘" isBlocking="false"/>
		<stopFacility id="22538.link:pt_22538" x="384835.2767560745" y="3936682.571126102" linkRefId="pt_22538" name="梅屋敷" isBlocking="false"/>
		<stopFacility id="22539.link:pt_22539" x="390680.5522690745" y="3947900.800276102" linkRefId="pt_22539" name="越中島" isBlocking="false"/>
		<stopFacility id="22542.link:pt_22542" x="377106.28145107446" y="3948834.607756102" linkRefId="pt_22542" name="永福町" isBlocking="false"/>
		<stopFacility id="22545.link:pt_22545" x="385381.78156607447" y="3952486.491126102" linkRefId="pt_22545" name="江戸川橋" isBlocking="false"/>
		<stopFacility id="22546.link:pt_22546" x="383370.5479410745" y="3941469.5641061016" linkRefId="pt_22546" name="荏原中延" isBlocking="false"/>
		<stopFacility id="22547.link:pt_22547" x="382994.8773010745" y="3940785.9737761016" linkRefId="pt_22547" name="荏原町" isBlocking="false"/>
		<stopFacility id="22548.link:pt_22548" x="383134.0912210745" y="3945565.1457461016" linkRefId="pt_22548" name="恵比寿" isBlocking="false"/>
		<stopFacility id="22554.link:pt_22554" x="386552.3937050745" y="3939814.7444561017" linkRefId="pt_22554" name="大井競馬場前" isBlocking="false"/>
		<stopFacility id="22556.link:pt_22556" x="385418.6249930745" y="3941156.1951561016" linkRefId="pt_22556" name="大井町" isBlocking="false"/>
		<stopFacility id="22557.link:pt_22557" x="380984.6457010745" y="3941204.792616102" linkRefId="pt_22557" name="大岡山" isBlocking="false"/>
		<stopFacility id="22558.link:pt_22558" x="382063.0384210745" y="3951544.459096102" linkRefId="pt_22558" name="大久保" isBlocking="false"/>
		<stopFacility id="22559.link:pt_22559" x="384841.2978240745" y="3942574.1747461017" linkRefId="pt_22559" name="大崎" isBlocking="false"/>
		<stopFacility id="22560.link:pt_22560" x="384348.4976010745" y="3942882.909486102" linkRefId="pt_22560" name="大崎広小路" isBlocking="false"/>
		<stopFacility id="22561.link:pt_22561" x="394577.9482079745" y="3950334.438826102" linkRefId="pt_22561" name="大島" isBlocking="false"/>
		<stopFacility id="22562.link:pt_22562" x="384849.0638440745" y="3954985.924276102" linkRefId="pt_22562" name="大塚" isBlocking="false"/>
		<stopFacility id="22563.link:pt_22563" x="384959.6789980745" y="3954970.496196102" linkRefId="pt_22563" name="大塚駅前" isBlocking="false"/>
		<stopFacility id="22564.link:pt_22564" x="388117.1015400745" y="3949874.2258561016" linkRefId="pt_22564" name="大手町" isBlocking="false"/>
		<stopFacility id="22565.link:pt_22565" x="385903.8313110745" y="3935085.5129261017" linkRefId="pt_22565" name="大鳥居" isBlocking="false"/>
		<stopFacility id="22566.link:pt_22566" x="384814.9966720745" y="3939076.9059761018" linkRefId="pt_22566" name="大森" isBlocking="false"/>
		<stopFacility id="22567.link:pt_22567" x="385497.11419307446" y="3938999.209156102" linkRefId="pt_22567" name="大森海岸" isBlocking="false"/>
		<stopFacility id="22568.link:pt_22568" x="385190.8115200745" y="3937323.210736102" linkRefId="pt_22568" name="大森町" isBlocking="false"/>
		<stopFacility id="22570.link:pt_22570" x="389073.6961390745" y="3952277.170876102" linkRefId="pt_22570" name="御徒町" isBlocking="false"/>
		<stopFacility id="22572.link:pt_22572" x="388376.5827730745" y="3950927.887696102" linkRefId="pt_22572" name="小川町" isBlocking="false"/>
		<stopFacility id="22573.link:pt_22573" x="375058.81896107446" y="3951988.1546761016" linkRefId="pt_22573" name="荻窪" isBlocking="false"/>
		<stopFacility id="22575.link:pt_22575" x="379745.9380810745" y="3940799.917006102" linkRefId="pt_22575" name="奥沢" isBlocking="false"/>
		<stopFacility id="22578.link:pt_22578" x="392554.6958910745" y="3952633.235756102" linkRefId="pt_22578" name="押上" isBlocking="false"/>
		<stopFacility id="22579.link:pt_22579" x="387878.0605670745" y="3957054.1697261017" linkRefId="pt_22579" name="小台" isBlocking="false"/>
		<stopFacility id="22582.link:pt_22582" x="388072.8639760745" y="3951439.542006102" linkRefId="pt_22582" name="御茶ノ水" isBlocking="false"/>
		<stopFacility id="22583.link:pt_22583" x="381041.6657710745" y="3952655.1384761017" linkRefId="pt_22583" name="落合" isBlocking="false"/>
		<stopFacility id="22584.link:pt_22584" x="386948.3084070745" y="3947132.749566102" linkRefId="pt_22584" name="御成門" isBlocking="false"/>
		<stopFacility id="22586.link:pt_22586" x="393886.6916048745" y="3952577.592696102" linkRefId="pt_22586" name="小村井" isBlocking="false"/>
		<stopFacility id="22587.link:pt_22587" x="383595.3909110745" y="3952898.300376102" linkRefId="pt_22587" name="面影橋" isBlocking="false"/>
		<stopFacility id="22588.link:pt_22588" x="383388.1093510745" y="3947629.344716102" linkRefId="pt_22588" name="表参道" isBlocking="false"/>
		<stopFacility id="22589.link:pt_22589" x="378125.9242510745" y="3941138.539246102" linkRefId="pt_22589" name="尾山台" isBlocking="false"/>
		<stopFacility id="22590.link:pt_22590" x="380689.13143107446" y="3938737.029526102" linkRefId="pt_22590" name="御嶽山" isBlocking="false"/>
		<stopFacility id="22591.link:pt_22591" x="385439.0846970745" y="3951882.4616161017" linkRefId="pt_22591" name="神楽坂" isBlocking="false"/>
		<stopFacility id="22595.link:pt_22595" x="387113.4305970745" y="3952432.5434461017" linkRefId="pt_22595" name="春日" isBlocking="false"/>
		<stopFacility id="22596.link:pt_22596" x="386984.67864207446" y="3948519.270716102" linkRefId="pt_22596" name="霞ケ関" isBlocking="false"/>
		<stopFacility id="22599.link:pt_22599" x="382148.2555310745" y="3955140.336176102" linkRefId="pt_22599" name="要町" isBlocking="false"/>
		<stopFacility id="22600.link:pt_22600" x="393160.55102807446" y="3955162.9606961017" linkRefId="pt_22600" name="鐘ケ淵" isBlocking="false"/>
		<stopFacility id="22602.link:pt_22602" x="383689.0873610745" y="3936169.328016102" linkRefId="pt_22602" name="蒲田" isBlocking="false"/>
		<stopFacility id="22603.link:pt_22603" x="373581.1028610745" y="3954265.3875661017" linkRefId="pt_22603" name="上井草" isBlocking="false"/>
		<stopFacility id="22605.link:pt_22605" x="375369.6785110745" y="3948018.6148161017" linkRefId="pt_22605" name="上北沢" isBlocking="false"/>
		<stopFacility id="22608.link:pt_22608" x="376747.9352510745" y="3941711.172276102" linkRefId="pt_22608" name="上野毛" isBlocking="false"/>
		<stopFacility id="22609.link:pt_22609" x="377459.0063610745" y="3945191.8086061017" linkRefId="pt_22609" name="上町" isBlocking="false"/>
		<stopFacility id="22610.link:pt_22610" x="386370.1059570745" y="3947311.755696102" linkRefId="pt_22610" name="神谷町" isBlocking="false"/>
		<stopFacility id="22612.link:pt_22612" x="393710.6892312745" y="3951187.9391161017" linkRefId="pt_22612" name="亀戸" isBlocking="false"/>
		<stopFacility id="22613.link:pt_22613" x="394399.3749637045" y="3951486.793646102" linkRefId="pt_22613" name="亀戸水神" isBlocking="false"/>
		<stopFacility id="22614.link:pt_22614" x="389544.5638060745" y="3949229.318246102" linkRefId="pt_22614" name="茅場町" isBlocking="false"/>
		<stopFacility id="22617.link:pt_22617" x="388720.8664590745" y="3950675.0466861017" linkRefId="pt_22617" name="神田" isBlocking="false"/>
		<stopFacility id="22618.link:pt_22618" x="383894.1048510745" y="3948168.023736102" linkRefId="pt_22618" name="外苑前" isBlocking="false"/>
		<stopFacility id="22619.link:pt_22619" x="380957.9463410745" y="3943571.319776102" linkRefId="pt_22619" name="学芸大学" isBlocking="false"/>
		<stopFacility id="22620.link:pt_22620" x="383419.9529610745" y="3953268.287466102" linkRefId="pt_22620" name="学習院下" isBlocking="false"/>
		<stopFacility id="22622.link:pt_22622" x="376537.6068510745" y="3946071.712126102" linkRefId="pt_22622" name="経堂" isBlocking="false"/>
		<stopFacility id="22623.link:pt_22623" x="388644.4158970745" y="3948884.711276102" linkRefId="pt_22623" name="京橋" isBlocking="false"/>
		<stopFacility id="22624.link:pt_22624" x="391900.7237410745" y="3950162.041276102" linkRefId="pt_22624" name="菊川" isBlocking="false"/>
		<stopFacility id="22625.link:pt_22625" x="383646.6650910745" y="3953699.357006102" linkRefId="pt_22625" name="鬼子母神前" isBlocking="false"/>
		<stopFacility id="22629.link:pt_22629" x="385855.4933510745" y="3942859.709186102" linkRefId="pt_22629" name="北品川" isBlocking="false"/>
		<stopFacility id="22631.link:pt_22631" x="381671.4719410745" y="3941071.2137561017" linkRefId="pt_22631" name="北千束" isBlocking="false"/>
		<stopFacility id="22636.link:pt_22636" x="372066.7948010745" y="3944457.926486102" linkRefId="pt_22636" name="喜多見" isBlocking="false"/>
		<stopFacility id="22638.link:pt_22638" x="391960.5233300745" y="3948057.4556161016" linkRefId="pt_22638" name="木場" isBlocking="false"/>
		<stopFacility id="22640.link:pt_22640" x="392612.2036410745" y="3951058.729316102" linkRefId="pt_22640" name="錦糸町" isBlocking="false"/>
		<stopFacility id="22641.link:pt_22641" x="388141.2067610745" y="3948364.398656102" linkRefId="pt_22641" name="銀座" isBlocking="false"/>
		<stopFacility id="22642.link:pt_22642" x="388332.4013440745" y="3948635.298056102" linkRefId="pt_22642" name="銀座一丁目" isBlocking="false"/>
		<stopFacility id="22643.link:pt_22643" x="380955.0221810745" y="3938132.665536102" linkRefId="pt_22643" name="久が原" isBlocking="false"/>
		<stopFacility id="22644.link:pt_22644" x="373222.22706107446" y="3950124.828986102" linkRefId="pt_22644" name="久我山" isBlocking="false"/>
		<stopFacility id="22645.link:pt_22645" x="386958.9184770745" y="3950956.580906102" linkRefId="pt_22645" name="九段下" isBlocking="false"/>
		<stopFacility id="22647.link:pt_22647" x="378754.7656610745" y="3940974.1106561017" linkRefId="pt_22647" name="九品仏" isBlocking="false"/>
		<stopFacility id="22649.link:pt_22649" x="388599.02156707447" y="3956899.571306102" linkRefId="pt_22649" name="熊野前" isBlocking="false"/>
		<stopFacility id="22651.link:pt_22651" x="390631.8289810745" y="3951952.870876102" linkRefId="pt_22651" name="蔵前" isBlocking="false"/>
		<stopFacility id="22660.link:pt_22660" x="384434.1566940745" y="3936017.4789761016" linkRefId="pt_22660" name="京急蒲田" isBlocking="false"/>
		<stopFacility id="22661.link:pt_22661" x="388945.7343110745" y="3952699.384576102" linkRefId="pt_22661" name="京成上野" isBlocking="false"/>
		<stopFacility id="22668.link:pt_22668" x="386356.1573290745" y="3948612.229246102" linkRefId="pt_22668" name="国会議事堂前" isBlocking="false"/>
		<stopFacility id="22671.link:pt_22671" x="377760.81471107446" y="3952062.794136102" linkRefId="pt_22671" name="高円寺" isBlocking="false"/>
		<stopFacility id="22672.link:pt_22672" x="385005.7511220745" y="3955854.886616102" linkRefId="pt_22672" name="庚申塚" isBlocking="false"/>
		<stopFacility id="22673.link:pt_22673" x="385688.4068620745" y="3949771.424406102" linkRefId="pt_22673" name="麹町" isBlocking="false"/>
		<stopFacility id="22674.link:pt_22674" x="384964.8224160745" y="3935317.5394061017" linkRefId="pt_22674" name="糀谷" isBlocking="false"/>
		<stopFacility id="22675.link:pt_22675" x="386987.70941907447" y="3952278.547696102" linkRefId="pt_22675" name="後楽園" isBlocking="false"/>
		<stopFacility id="22681.link:pt_22681" x="389429.6128370745" y="3950381.848156102" linkRefId="pt_22681" name="小伝馬町" isBlocking="false"/>
		<stopFacility id="22683.link:pt_22683" x="386545.4484580745" y="3955505.145176102" linkRefId="pt_22683" name="駒込" isBlocking="false"/>
		<stopFacility id="22684.link:pt_22684" x="378830.5099410745" y="3944092.4291961016" linkRefId="pt_22684" name="駒沢大学" isBlocking="false"/>
		<stopFacility id="22685.link:pt_22685" x="380889.9479310745" y="3946877.8175861016" linkRefId="pt_22685" name="駒場東大前" isBlocking="false"/>
		<stopFacility id="22689.link:pt_22689" x="377541.57766107447" y="3946331.803016102" linkRefId="pt_22689" name="豪徳寺" isBlocking="false"/>
		<stopFacility id="22690.link:pt_22690" x="384774.7329910745" y="3953587.123816102" linkRefId="pt_22690" name="護国寺" isBlocking="false"/>
		<stopFacility id="22691.link:pt_22691" x="384489.88760807447" y="3943283.360186102" linkRefId="pt_22691" name="五反田" isBlocking="false"/>
		<stopFacility id="22694.link:pt_22694" x="376779.3660410745" y="3953981.2275761017" linkRefId="pt_22694" name="鷺ノ宮" isBlocking="false"/>
		<stopFacility id="22695.link:pt_22695" x="377328.2873210745" y="3943891.7089361018" linkRefId="pt_22695" name="桜新町" isBlocking="false"/>
		<stopFacility id="22696.link:pt_22696" x="376131.2906710745" y="3947875.236526102" linkRefId="pt_22696" name="桜上水" isBlocking="false"/>
		<stopFacility id="22698.link:pt_22698" x="387012.6479550745" y="3948953.696466102" linkRefId="pt_22698" name="桜田門" isBlocking="false"/>
		<stopFacility id="22699.link:pt_22699" x="379338.4345010745" y="3948547.208906102" linkRefId="pt_22699" name="笹塚" isBlocking="false"/>
		<stopFacility id="22700.link:pt_22700" x="386140.6815270745" y="3940933.618246102" linkRefId="pt_22700" name="鮫洲" isBlocking="false"/>
		<stopFacility id="22702.link:pt_22702" x="381715.3212610745" y="3949101.3279861016" linkRefId="pt_22702" name="参宮橋" isBlocking="false"/>
		<stopFacility id="22703.link:pt_22703" x="379667.4877210745" y="3945200.314376102" linkRefId="pt_22703" name="三軒茶屋" isBlocking="false"/>
		<stopFacility id="22705.link:pt_22705" x="378241.4624710745" y="3945255.147256102" linkRefId="pt_22705" name="松陰神社前" isBlocking="false"/>
		<stopFacility id="22706.link:pt_22706" x="386799.4498030745" y="3937087.618686102" linkRefId="pt_22706" name="昭和島" isBlocking="false"/>
		<stopFacility id="22708.link:pt_22708" x="392920.8490230745" y="3946874.0545761017" linkRefId="pt_22708" name="潮見" isBlocking="false"/>
		<stopFacility id="22709.link:pt_22709" x="385798.3448720745" y="3943528.5170861017" linkRefId="pt_22709" name="品川" isBlocking="false"/>
		<stopFacility id="22710.link:pt_22710" x="384129.0978910745" y="3949252.320276102" linkRefId="pt_22710" name="信濃町" isBlocking="false"/>
		<stopFacility id="22712.link:pt_22712" x="386796.7575350745" y="3946294.6018461017" linkRefId="pt_22712" name="芝公園" isBlocking="false"/>
		<stopFacility id="22715.link:pt_22715" x="382456.6605310745" y="3946860.161986102" linkRefId="pt_22715" name="渋谷" isBlocking="false"/>
		<stopFacility id="22720.link:pt_22720" x="375457.9213910745" y="3954131.8313661017" linkRefId="pt_22720" name="下井草" isBlocking="false"/>
		<stopFacility id="22722.link:pt_22722" x="381864.22937107447" y="3953220.9718361017" linkRefId="pt_22722" name="下落合" isBlocking="false"/>
		<stopFacility id="22723.link:pt_22723" x="379351.3284210745" y="3947175.941296102" linkRefId="pt_22723" name="下北沢" isBlocking="false"/>
		<stopFacility id="22724.link:pt_22724" x="384671.3813370745" y="3941344.9101761016" linkRefId="pt_22724" name="下神明" isBlocking="false"/>
		<stopFacility id="22725.link:pt_22725" x="376988.5000810745" y="3947716.4263261016" linkRefId="pt_22725" name="下高井戸" isBlocking="false"/>
		<stopFacility id="22726.link:pt_22726" x="380991.3748210745" y="3937171.3122061016" linkRefId="pt_22726" name="下丸子" isBlocking="false"/>
		<stopFacility id="22730.link:pt_22730" x="382319.4540810745" y="3951577.834316102" linkRefId="pt_22730" name="新大久保" isBlocking="false"/>
		<stopFacility id="22731.link:pt_22731" x="384964.0047370745" y="3954357.309256102" linkRefId="pt_22731" name="新大塚" isBlocking="false"/>
		<stopFacility id="22732.link:pt_22732" x="388218.4256860745" y="3951112.936616102" linkRefId="pt_22732" name="新御茶ノ水" isBlocking="false"/>
		<stopFacility id="22733.link:pt_22733" x="393831.16038077447" y="3945481.1939961016" linkRefId="pt_22733" name="新木場" isBlocking="false"/>
		<stopFacility id="22735.link:pt_22735" x="377621.0525210745" y="3951221.775996102" linkRefId="pt_22735" name="新高円寺" isBlocking="false"/>
		<stopFacility id="22736.link:pt_22736" x="385081.4122620745" y="3956070.480856102" linkRefId="pt_22736" name="新庚申塚" isBlocking="false"/>
		<stopFacility id="22741.link:pt_22741" x="382285.3225210745" y="3950434.8392561018" linkRefId="pt_22741" name="新宿" isBlocking="false"/>
		<stopFacility id="22742.link:pt_22742" x="383293.0611510745" y="3950183.906256102" linkRefId="pt_22742" name="新宿御苑前" isBlocking="false"/>
		<stopFacility id="22743.link:pt_22743" x="382762.96999107447" y="3950403.360876102" linkRefId="pt_22743" name="新宿三丁目" isBlocking="false"/>
		<stopFacility id="22744.link:pt_22744" x="390194.3365760745" y="3934016.349746102" linkRefId="pt_22744" name="新整備場" isBlocking="false"/>
		<stopFacility id="22745.link:pt_22745" x="381719.6296210745" y="3946719.395126102" linkRefId="pt_22745" name="神泉" isBlocking="false"/>
		<stopFacility id="22747.link:pt_22747" x="378720.3418310745" y="3947318.812496102" linkRefId="pt_22747" name="新代田" isBlocking="false"/>
		<stopFacility id="22748.link:pt_22748" x="388955.7563350745" y="3948203.554846102" linkRefId="pt_22748" name="新富町" isBlocking="false"/>
		<stopFacility id="22749.link:pt_22749" x="379538.9109710745" y="3951184.531356102" linkRefId="pt_22749" name="新中野" isBlocking="false"/>
		<stopFacility id="22750.link:pt_22750" x="388997.1733740745" y="3950228.111046102" linkRefId="pt_22750" name="新日本橋" isBlocking="false"/>
		<stopFacility id="22751.link:pt_22751" x="387562.4527250745" y="3947748.5403761016" linkRefId="pt_22751" name="新橋" isBlocking="false"/>
		<stopFacility id="22752.link:pt_22752" x="386036.2419250745" y="3942317.258676102" linkRefId="pt_22752" name="新馬場" isBlocking="false"/>
		<stopFacility id="22753.link:pt_22753" x="389002.6731900745" y="3955586.637956102" linkRefId="pt_22753" name="新三河島" isBlocking="false"/>
		<stopFacility id="22755.link:pt_22755" x="379484.96428107447" y="3941213.271396102" linkRefId="pt_22755" name="自由が丘" isBlocking="false"/>
		<stopFacility id="22756.link:pt_22756" x="387539.6785570745" y="3950983.9623461016" linkRefId="pt_22756" name="神保町" isBlocking="false"/>
		<stopFacility id="22757.link:pt_22757" x="389952.1945540745" y="3949654.347466102" linkRefId="pt_22757" name="水天宮前" isBlocking="false"/>
		<stopFacility id="22758.link:pt_22758" x="387233.4483450745" y="3951686.690376102" linkRefId="pt_22758" name="水道橋" isBlocking="false"/>
		<stopFacility id="22759.link:pt_22759" x="388796.9351390745" y="3951759.571376102" linkRefId="pt_22759" name="末広町" isBlocking="false"/>
		<stopFacility id="22760.link:pt_22760" x="385864.3750610745" y="3955172.942146102" linkRefId="pt_22760" name="巣鴨" isBlocking="false"/>
		<stopFacility id="22761.link:pt_22761" x="384814.2833270745" y="3955365.054426102" linkRefId="pt_22761" name="巣鴨新田" isBlocking="false"/>
		<stopFacility id="22763.link:pt_22763" x="392760.3782790745" y="3950211.213666102" linkRefId="pt_22763" name="住吉" isBlocking="false"/>
		<stopFacility id="22764.link:pt_22764" x="373139.3954610745" y="3944843.6029561018" linkRefId="pt_22764" name="成城学園前" isBlocking="false"/>
		<stopFacility id="22766.link:pt_22766" x="387130.3517920745" y="3935373.9880961017" linkRefId="pt_22766" name="整備場" isBlocking="false"/>
		<stopFacility id="22768.link:pt_22768" x="382301.0407410745" y="3950946.262956102" linkRefId="pt_22768" name="西武新宿" isBlocking="false"/>
		<stopFacility id="22772.link:pt_22772" x="377821.15739107446" y="3945194.2346661016" linkRefId="pt_22772" name="世田谷" isBlocking="false"/>
		<stopFacility id="22773.link:pt_22773" x="378784.9422510745" y="3946828.6677761017" linkRefId="pt_22773" name="世田谷代田" isBlocking="false"/>
		<stopFacility id="22774.link:pt_22774" x="381340.0266210745" y="3955702.193466102" linkRefId="pt_22774" name="千川" isBlocking="false"/>
		<stopFacility id="22775.link:pt_22775" x="385899.9089680745" y="3944606.8800861016" linkRefId="pt_22775" name="泉岳寺" isBlocking="false"/>
		<stopFacility id="22777.link:pt_22777" x="386348.76724807447" y="3954565.5218561017" linkRefId="pt_22777" name="千石" isBlocking="false"/>
		<stopFacility id="22779.link:pt_22779" x="381777.7563710745" y="3941527.1414661016" linkRefId="pt_22779" name="洗足" isBlocking="false"/>
		<stopFacility id="22780.link:pt_22780" x="381506.91570107447" y="3940362.759056102" linkRefId="pt_22780" name="洗足池" isBlocking="false"/>
		<stopFacility id="22781.link:pt_22781" x="383337.3136510745" y="3949376.5239361017" linkRefId="pt_22781" name="千駄ケ谷" isBlocking="false"/>
		<stopFacility id="22782.link:pt_22782" x="388026.9474350745" y="3954305.334826102" linkRefId="pt_22782" name="千駄木" isBlocking="false"/>
		<stopFacility id="22783.link:pt_22783" x="374078.38990107446" y="3945177.235986102" linkRefId="pt_22783" name="祖師ケ谷大蔵" isBlocking="false"/>
		<stopFacility id="22784.link:pt_22784" x="383931.01964107447" y="3954161.317696102" linkRefId="pt_22784" name="都電雑司ケ谷" isBlocking="false"/>
		<stopFacility id="22785.link:pt_22785" x="383634.5761110745" y="3934785.8614561018" linkRefId="pt_22785" name="雑色" isBlocking="false"/>
		<stopFacility id="22786.link:pt_22786" x="374606.2728910745" y="3949625.508046102" linkRefId="pt_22786" name="高井戸" isBlocking="false"/>
		<stopFacility id="22790.link:pt_22790" x="382690.7347110745" y="3952942.4894361016" linkRefId="pt_22790" name="高田馬場" isBlocking="false"/>
		<stopFacility id="22791.link:pt_22791" x="385013.6556670745" y="3943843.4918961017" linkRefId="pt_22791" name="高輪台" isBlocking="false"/>
		<stopFacility id="22794.link:pt_22794" x="388820.3082480745" y="3948755.241506102" linkRefId="pt_22794" name="宝町" isBlocking="false"/>
		<stopFacility id="22797.link:pt_22797" x="387498.9538300745" y="3950398.5510761016" linkRefId="pt_22797" name="竹橋" isBlocking="false"/>
		<stopFacility id="22798.link:pt_22798" x="385800.20481607446" y="3940185.200106102" linkRefId="pt_22798" name="立会川" isBlocking="false"/>
		<stopFacility id="22800.link:pt_22800" x="392302.0225970745" y="3945419.8447561017" linkRefId="pt_22800" name="辰巳" isBlocking="false"/>
		<stopFacility id="22803.link:pt_22803" x="379461.5508510745" y="3939238.2289161016" linkRefId="pt_22803" name="多摩川" isBlocking="false"/>
		<stopFacility id="22807.link:pt_22807" x="386597.4393860745" y="3945438.193896102" linkRefId="pt_22807" name="田町" isBlocking="false"/>
		<stopFacility id="22811.link:pt_22811" x="390481.2465230745" y="3952556.7955761016" linkRefId="pt_22811" name="田原町" isBlocking="false"/>
		<stopFacility id="22812.link:pt_22812" x="382580.8931410745" y="3945704.427026102" linkRefId="pt_22812" name="代官山" isBlocking="false"/>
		<stopFacility id="22814.link:pt_22814" x="378568.5280310745" y="3948246.4470661017" linkRefId="pt_22814" name="代田橋" isBlocking="false"/>
		<stopFacility id="22815.link:pt_22815" x="387239.72792507446" y="3946648.583716102" linkRefId="pt_22815" name="大門" isBlocking="false"/>
		<stopFacility id="22817.link:pt_22817" x="373345.3436510745" y="3947952.1648361017" linkRefId="pt_22817" name="千歳烏山" isBlocking="false"/>
		<stopFacility id="22818.link:pt_22818" x="375417.56075107446" y="3945633.3637061017" linkRefId="pt_22818" name="千歳船橋" isBlocking="false"/>
		<stopFacility id="22819.link:pt_22819" x="381512.8450810745" y="3937370.7934961016" linkRefId="pt_22819" name="千鳥町" isBlocking="false"/>
		<stopFacility id="22820.link:pt_22820" x="389951.2236720745" y="3947515.942516102" linkRefId="pt_22820" name="月島" isBlocking="false"/>
		<stopFacility id="22821.link:pt_22821" x="388847.3841330745" y="3947895.424966102" linkRefId="pt_22821" name="築地" isBlocking="false"/>
		<stopFacility id="22825.link:pt_22825" x="386904.6503570745" y="3942787.9885161016" linkRefId="pt_22825" name="天王洲アイル" isBlocking="false"/>
		<stopFacility id="22826.link:pt_22826" x="379324.4143610745" y="3940027.137586102" linkRefId="pt_22826" name="田園調布" isBlocking="false"/>
		<stopFacility id="22828.link:pt_22828" x="388383.1458300745" y="3949384.122406102" linkRefId="pt_22828" name="東京" isBlocking="false"/>
		<stopFacility id="22830.link:pt_22830" x="392953.7267880745" y="3948085.088856102" linkRefId="pt_22830" name="東陽町" isBlocking="false"/>
		<stopFacility id="22832.link:pt_22832" x="383753.6265510745" y="3941956.019736102" linkRefId="pt_22832" name="戸越" isBlocking="false"/>
		<stopFacility id="22833.link:pt_22833" x="383643.1460310745" y="3942141.0906461016" linkRefId="pt_22833" name="戸越銀座" isBlocking="false"/>
		<stopFacility id="22834.link:pt_22834" x="383924.0359710745" y="3941342.647856102" linkRefId="pt_22834" name="戸越公園" isBlocking="false"/>
		<stopFacility id="22837.link:pt_22837" x="377529.8351410745" y="3941315.2649361016" linkRefId="pt_22837" name="等々力" isBlocking="false"/>
		<stopFacility id="22839.link:pt_22839" x="390949.1698880745" y="3946517.0285161017" linkRefId="pt_22839" name="豊洲" isBlocking="false"/>
		<stopFacility id="22841.link:pt_22841" x="386831.0163030745" y="3948149.6300461018" linkRefId="pt_22841" name="虎ノ門" isBlocking="false"/>
		<stopFacility id="22842.link:pt_22842" x="377291.9071110745" y="3953949.4957361016" linkRefId="pt_22842" name="都立家政" isBlocking="false"/>
		<stopFacility id="22843.link:pt_22843" x="380156.03424107446" y="3942349.212486102" linkRefId="pt_22843" name="都立大学" isBlocking="false"/>
		<stopFacility id="22844.link:pt_22844" x="381110.24082107446" y="3953132.645286102" linkRefId="pt_22844" name="中井" isBlocking="false"/>
		<stopFacility id="22846.link:pt_22846" x="389189.19890807447" y="3952193.784966102" linkRefId="pt_22846" name="仲御徒町" isBlocking="false"/>
		<stopFacility id="22849.link:pt_22849" x="379221.2154510745" y="3952112.5494361017" linkRefId="pt_22849" name="中野" isBlocking="false"/>
		<stopFacility id="22850.link:pt_22850" x="380727.8156510745" y="3951145.794136102" linkRefId="pt_22850" name="中野坂上" isBlocking="false"/>