<?xml version="1.0" encoding="UTF-8"?>
<!DOCTYPE transitSchedule SYSTEM "http://www.matsim.org/files/dtd/transitSchedule_v2.dtd">

<transitSchedule>

	<transitStops>
		<stopFacility id="Aikō-Ishida_Aikō-Ishida" x="139.3447" y="35.41817" linkRefId="Aikō-Ishida_Aikō-Ishida" isBlocking="false"/>
		<stopFacility id="Aikō-Ishida_Hon-Atsugi" x="139.35415" y="35.428365" linkRefId="Aikō-Ishida_Hon-Atsugi" isBlocking="false"/>
		<stopFacility id="Aikō-Ishida_Isehara" x="139.32954999999998" y="35.407275" linkRefId="Aikō-Ishida_Isehara" isBlocking="false"/>
		<stopFacility id="Akasaka_Kokkai-gijidō-mae" x="139.74085" y="35.673265" linkRefId="Akasaka_Kokkai-gijidō-mae" isBlocking="false"/>
		<stopFacility id="Ashigara_Ashigara" x="139.1545" y="35.27212" linkRefId="Ashigara_Ashigara" isBlocking="false"/>
		<stopFacility id="Ashigara_Hotaruda" x="139.153222" y="35.27856" linkRefId="Ashigara_Hotaruda" isBlocking="false"/>
		<stopFacility id="Ashigara_Odawara" x="139.1552" y="35.264595" linkRefId="Ashigara_Odawara" isBlocking="false"/>
		<stopFacility id="Atsugi_Atsugi" x="139.3775" y="35.44297" linkRefId="Atsugi_Atsugi" isBlocking="false"/>
		<stopFacility id="Atsugi_Ebina" x="139.38465" y="35.448260000000005" linkRefId="Atsugi_Ebina" isBlocking="false"/>
		<stopFacility id="Atsugi_Hon-Atsugi" x="139.37054999999998" y="35.440765" linkRefId="Atsugi_Hon-Atsugi" isBlocking="false"/>
		<stopFacility id="Chitose-Funabashi_Chitose-Funabashi" x="139.6253" y="35.64791" linkRefId="Chitose-Funabashi_Chitose-Funabashi" isBlocking="false"/>
		<stopFacility id="Chitose-Funabashi_Kyōdō" x="139.63155" y="35.64971" linkRefId="Chitose-Funabashi_Kyōdō" isBlocking="false"/>
		<stopFacility id="Chitose-Funabashi_Soshigaya-Ōkura" x="139.6171" y="35.645465" linkRefId="Chitose-Funabashi_Soshigaya-Ōkura" isBlocking="false"/>
		<stopFacility id="Ebina_Atsugi" x="139.38465" y="35.448260000000005" linkRefId="Ebina_Atsugi" isBlocking="false"/>
		<stopFacility id="Ebina_Ebina" x="139.3918" y="35.45355" linkRefId="Ebina_Ebina" isBlocking="false"/>
		<stopFacility id="Ebina_Hon-Atsugi" x="139.3777" y="35.446055" linkRefId="Ebina_Hon-Atsugi" isBlocking="false"/>
		<stopFacility id="Ebina_Isehara" x="139.35309999999998" y="35.424965" linkRefId="Ebina_Isehara" isBlocking="false"/>
		<stopFacility id="Ebina_Machida" x="139.41879999999998" y="35.49913" linkRefId="Ebina_Machida" isBlocking="false"/>
		<stopFacility id="Ebina_Sagami-Ōno" x="139.4153" y="35.49342" linkRefId="Ebina_Sagami-Ōno" isBlocking="false"/>
		<stopFacility id="Ebina_Zama" x="139.39585" y="35.46764" linkRefId="Ebina_Zama" isBlocking="false"/>
		<stopFacility id="Gōtokuji_Gōtokuji" x="139.6481" y="35.65411" linkRefId="Gōtokuji_Gōtokuji" isBlocking="false"/>
		<stopFacility id="Gōtokuji_Kyōdō" x="139.64294999999998" y="35.65281" linkRefId="Gōtokuji_Kyōdō" isBlocking="false"/>
		<stopFacility id="Gōtokuji_Umegaoka" x="139.65120000000002" y="35.655175" linkRefId="Gōtokuji_Umegaoka" isBlocking="false"/>
		<stopFacility id="Hadano_Hadano" x="139.2269" y="35.36956" linkRefId="Hadano_Hadano" isBlocking="false"/>
		<stopFacility id="Hadano_Hon-Atsugi" x="139.29525" y="35.40406" linkRefId="Hadano_Hon-Atsugi" isBlocking="false"/>
		<stopFacility id="Hadano_Odawara" x="139.1914" y="35.313315" linkRefId="Hadano_Odawara" isBlocking="false"/>
		<stopFacility id="Hadano_Shibusawa" x="139.20625" y="35.37173" linkRefId="Hadano_Shibusawa" isBlocking="false"/>
		<stopFacility id="Hadano_Shin-Matsuda" x="139.18285" y="35.35694" linkRefId="Hadano_Shin-Matsuda" isBlocking="false"/>
		<stopFacility id="Hadano_Tōkaidaigaku-mae" x="139.2491" y="35.371365" linkRefId="Hadano_Tōkaidaigaku-mae" isBlocking="false"/>
		<stopFacility id="Hibiya_Nijūbashimae" x="139.76080000000002" y="35.67807" linkRefId="Hibiya_Nijūbashimae" isBlocking="false"/>
		<stopFacility id="Higashi-Kitazawa_Higashi-Kitazawa" x="139.6725" y="35.66508" linkRefId="Higashi-Kitazawa_Higashi-Kitazawa" isBlocking="false"/>
		<stopFacility id="Higashi-Kitazawa_Shimo-Kitazawa" x="139.66985" y="35.66329" linkRefId="Higashi-Kitazawa_Shimo-Kitazawa" isBlocking="false"/>
		<stopFacility id="Higashi-Kitazawa_Yoyogi-Uehara" x="139.67565000000002" y="35.666785000000004" linkRefId="Higashi-Kitazawa_Yoyogi-Uehara" isBlocking="false"/>
		<stopFacility id="Hon-Atsugi_Aikō-Ishida" x="139.35415" y="35.428365" linkRefId="Hon-Atsugi_Aikō-Ishida" isBlocking="false"/>
		<stopFacility id="Hon-Atsugi_Atsugi" x="139.37054999999998" y="35.440765" linkRefId="Hon-Atsugi_Atsugi" isBlocking="false"/>
		<stopFacility id="Hon-Atsugi_Ebina" x="139.3777" y="35.446055" linkRefId="Hon-Atsugi_Ebina" isBlocking="false"/>
		<stopFacility id="Hon-Atsugi_Hadano" x="139.29525" y="35.40406" linkRefId="Hon-Atsugi_Hadano" isBlocking="false"/>
		<stopFacility id="Hon-Atsugi_Hon-Atsugi" x="139.3636" y="35.43856" linkRefId="Hon-Atsugi_Hon-Atsugi" isBlocking="false"/>
		<stopFacility id="Hotaruda_Ashigara" x="139.153222" y="35.27856" linkRefId="Hotaruda_Ashigara" isBlocking="false"/>
		<stopFacility id="Hotaruda_Hotaruda" x="139.151944" y="35.285" linkRefId="Hotaruda_Hotaruda" isBlocking="false"/>
		<stopFacility id="Hotaruda_Tomizu" x="139.14875" y="35.2906945" linkRefId="Hotaruda_Tomizu" isBlocking="false"/>
		<stopFacility id="Ikuta_Ikuta" x="139.5406" y="35.61482" linkRefId="Ikuta_Ikuta" isBlocking="false"/>
		<stopFacility id="Ikuta_Mukōgaoka-Yūen" x="139.55205" y="35.615825" linkRefId="Ikuta_Mukōgaoka-Yūen" isBlocking="false"/>
		<stopFacility id="Ikuta_Yomiuri-Land-mae" x="139.53385" y="35.61483" linkRefId="Ikuta_Yomiuri-Land-mae" isBlocking="false"/>
		<stopFacility id="Isehara_Aikō-Ishida" x="139.32954999999998" y="35.407275" linkRefId="Isehara_Aikō-Ishida" isBlocking="false"/>
		<stopFacility id="Isehara_Isehara" x="139.3144" y="35.39638" linkRefId="Isehara_Isehara" isBlocking="false"/>
		<stopFacility id="Isehara_Odawara" x="139.23515" y="35.326724999999996" linkRefId="Isehara_Odawara" isBlocking="false"/>
		<stopFacility id="Isehara_Tsurumaki-Onsen" x="139.29615" y="35.388684999999995" linkRefId="Isehara_Tsurumaki-Onsen" isBlocking="false"/>
		<stopFacility id="Izumi-Tamagawa_Izumi-Tamagawa" x="139.5733" y="35.6268" linkRefId="Izumi-Tamagawa_Izumi-Tamagawa" isBlocking="false"/>
		<stopFacility id="Izumi-Tamagawa_Komae" x="139.575" y="35.62921" linkRefId="Izumi-Tamagawa_Komae" isBlocking="false"/>
		<stopFacility id="Izumi-Tamagawa_Noborito" x="139.57105" y="35.623435" linkRefId="Izumi-Tamagawa_Noborito" isBlocking="false"/>
		<stopFacility id="Kaisei_Kaisei" x="139.1357" y="35.32681" linkRefId="Kaisei_Kaisei" isBlocking="false"/>
		<stopFacility id="Kaisei_Kayama" x="139.1391" y="35.318885" linkRefId="Kaisei_Kayama" isBlocking="false"/>
		<stopFacility id="Kaisei_Odawara" x="139.1458" y="35.29194" linkRefId="Kaisei_Odawara" isBlocking="false"/>
		<stopFacility id="Kaisei_Shin-Matsuda" x="139.13725" y="35.335565" linkRefId="Kaisei_Shin-Matsuda" isBlocking="false"/>
		<stopFacility id="Kakio_Kakio" x="139.4971" y="35.58891" linkRefId="Kakio_Kakio" isBlocking="false"/>
		<stopFacility id="Kakio_Shin-Yurigaoka" x="139.50189999999998" y="35.595985" linkRefId="Kakio_Shin-Yurigaoka" isBlocking="false"/>
		<stopFacility id="Kakio_Tsurukawa" x="139.49" y="35.586115" linkRefId="Kakio_Tsurukawa" isBlocking="false"/>
		<stopFacility id="Kasumigaseki_Hibiya" x="139.75605000000002" y="35.67346" linkRefId="Kasumigaseki_Hibiya" isBlocking="false"/>
		<stopFacility id="Kasumigaseki_Ōtemachi" x="139.7582" y="35.679575" linkRefId="Kasumigaseki_Ōtemachi" isBlocking="false"/>
		<stopFacility id="Kayama_Kaisei" x="139.1391" y="35.318885" linkRefId="Kayama_Kaisei" isBlocking="false"/>
		<stopFacility id="Kayama_Kayama" x="139.1425" y="35.31096" linkRefId="Kayama_Kayama" isBlocking="false"/>
		<stopFacility id="Kayama_Tomizu" x="139.144028" y="35.3036745" linkRefId="Kayama_Tomizu" isBlocking="false"/>
		<stopFacility id="Kita-Senju_Ayase" x="139.81535" y="35.756215" linkRefId="Kita-Senju_Ayase" isBlocking="false"/>
		<stopFacility id="Kitami_Kitami" x="139.5855" y="35.63613" linkRefId="Kitami_Kitami" isBlocking="false"/>
		<stopFacility id="Kitami_Komae" x="139.5811" y="35.633875" linkRefId="Kitami_Komae" isBlocking="false"/>
		<stopFacility id="Kitami_Seijōgakuen-Mae" x="139.59175" y="35.637969999999996" linkRefId="Kitami_Seijōgakuen-Mae" isBlocking="false"/>
		<stopFacility id="Kokkai-gijidō-mae_Kasumigaseki" x="139.7486" y="35.673045" linkRefId="Kokkai-gijidō-mae_Kasumigaseki" isBlocking="false"/>
		<stopFacility id="Komae_Izumi-Tamagawa" x="139.575" y="35.62921" linkRefId="Komae_Izumi-Tamagawa" isBlocking="false"/>
		<stopFacility id="Komae_Kitami" x="139.5811" y="35.633875" linkRefId="Komae_Kitami" isBlocking="false"/>
		<stopFacility id="Komae_Komae" x="139.5767" y="35.63162" linkRefId="Komae_Komae" isBlocking="false"/>
		<stopFacility id="Komae_Noborito" x="139.57274999999998" y="35.625845" linkRefId="Komae_Noborito" isBlocking="false"/>
		<stopFacility id="Komae_Seijōgakuen-Mae" x="139.58735000000001" y="35.635715" linkRefId="Komae_Seijōgakuen-Mae" isBlocking="false"/>
		<stopFacility id="Kyōdō_Chitose-Funabashi" x="139.63155" y="35.64971" linkRefId="Kyōdō_Chitose-Funabashi" isBlocking="false"/>
		<stopFacility id="Kyōdō_Gōtokuji" x="139.64294999999998" y="35.65281" linkRefId="Kyōdō_Gōtokuji" isBlocking="false"/>
		<stopFacility id="Kyōdō_Kyōdō" x="139.6378" y="35.65151" linkRefId="Kyōdō_Kyōdō" isBlocking="false"/>
		<stopFacility id="Kyōdō_Seijōgakuen-Mae" x="139.61790000000002" y="35.64566" linkRefId="Kyōdō_Seijōgakuen-Mae" isBlocking="false"/>
		<stopFacility id="Kyōdō_Shimo-Kitazawa" x="139.6525" y="35.656504999999996" linkRefId="Kyōdō_Shimo-Kitazawa" isBlocking="false"/>
		<stopFacility id="Machida_Ebina" x="139.41879999999998" y="35.49913" linkRefId="Machida_Ebina" isBlocking="false"/>
		<stopFacility id="Machida_Hon-Atsugi" x="139.4047" y="35.491635" linkRefId="Machida_Hon-Atsugi" isBlocking="false"/>
		<stopFacility id="Machida_Machida" x="139.4458" y="35.54471" linkRefId="Machida_Machida" isBlocking="false"/>
		<stopFacility id="Machida_Omotesandō" x="139.57875" y="35.60456" linkRefId="Machida_Omotesandō" isBlocking="false"/>
		<stopFacility id="Machida_Sagami-Ōno" x="139.4423" y="35.539" linkRefId="Machida_Sagami-Ōno" isBlocking="false"/>
		<stopFacility id="Machida_Shin-Yurigaoka" x="139.47625" y="35.573885000000004" linkRefId="Machida_Shin-Yurigaoka" isBlocking="false"/>
		<stopFacility id="Machida_Shinjuku" x="139.5725" y="35.61759" linkRefId="Machida_Shinjuku" isBlocking="false"/>
		<stopFacility id="Machida_Tamagawagakuen-mae" x="139.45485" y="35.554495" linkRefId="Machida_Tamagawagakuen-mae" isBlocking="false"/>
		<stopFacility id="Machiya_Kita-Senju" x="139.79205000000002" y="35.745599999999996" linkRefId="Machiya_Kita-Senju" isBlocking="false"/>
		<stopFacility id="Meiji-jingumae-(Harajuku)_Omotesandō" x="139.7074" y="35.66695" linkRefId="Meiji-jingumae-(Harajuku)_Omotesandō" isBlocking="false"/>
		<stopFacility id="Minami-Shinjuku_Minami-Shinjuku" x="139.6982" y="35.68316" linkRefId="Minami-Shinjuku_Minami-Shinjuku" isBlocking="false"/>
		<stopFacility id="Minami-Shinjuku_Sangūbashi" x="139.69575" y="35.680645" linkRefId="Minami-Shinjuku_Sangūbashi" isBlocking="false"/>
		<stopFacility id="Minami-Shinjuku_Shinjuku" x="139.6987" y="35.686814999999996" linkRefId="Minami-Shinjuku_Shinjuku" isBlocking="false"/>
		<stopFacility id="Mukōgaoka-Yūen_Ikuta" x="139.55205" y="35.615825" linkRefId="Mukōgaoka-Yūen_Ikuta" isBlocking="false"/>
		<stopFacility id="Mukōgaoka-Yūen_Mukōgaoka-Yūen" x="139.5635" y="35.61683" linkRefId="Mukōgaoka-Yūen_Mukōgaoka-Yūen" isBlocking="false"/>
		<stopFacility id="Mukōgaoka-Yūen_Noborito" x="139.56615" y="35.618449999999996" linkRefId="Mukōgaoka-Yūen_Noborito" isBlocking="false"/>
		<stopFacility id="Mukōgaoka-Yūen_Shin-Yurigaoka" x="139.5351" y="35.609944999999996" linkRefId="Mukōgaoka-Yūen_Shin-Yurigaoka" isBlocking="false"/>
		<stopFacility id="Nezu_Sendagi" x="139.7644" y="35.72225" linkRefId="Nezu_Sendagi" isBlocking="false"/>
		<stopFacility id="Nijūbashimae_Ōtemachi" x="139.76295" y="35.684185" linkRefId="Nijūbashimae_Ōtemachi" isBlocking="false"/>
		<stopFacility id="Nishi-Nippori_Machiya" x="139.77370000000002" y="35.736995" linkRefId="Nishi-Nippori_Machiya" isBlocking="false"/>
		<stopFacility id="Noborito_Izumi-Tamagawa" x="139.57105" y="35.623435" linkRefId="Noborito_Izumi-Tamagawa" isBlocking="false"/>
		<stopFacility id="Noborito_Komae" x="139.57274999999998" y="35.625845" linkRefId="Noborito_Komae" isBlocking="false"/>
		<stopFacility id="Noborito_Mukōgaoka-Yūen" x="139.56615" y="35.618449999999996" linkRefId="Noborito_Mukōgaoka-Yūen" isBlocking="false"/>
		<stopFacility id="Noborito_Noborito" x="139.5688" y="35.62007" linkRefId="Noborito_Noborito" isBlocking="false"/>
		<stopFacility id="Noborito_Seijōgakuen-Mae" x="139.5834" y="35.62994" linkRefId="Noborito_Seijōgakuen-Mae" isBlocking="false"/>
		<stopFacility id="Noborito_Shimo-Kitazawa" x="139.618" y="35.640784999999994" linkRefId="Noborito_Shimo-Kitazawa" isBlocking="false"/>
		<stopFacility id="Noborito_Shin-Yurigaoka" x="139.53775000000002" y="35.611565" linkRefId="Noborito_Shin-Yurigaoka" isBlocking="false"/>
		<stopFacility id="Nogizaka_Akasaka" x="139.73205000000002" y="35.669985" linkRefId="Nogizaka_Akasaka" isBlocking="false"/>
		<stopFacility id="Odakyū-Sagamihara_Odakyū-Sagamihara" x="139.4236" y="35.51625" linkRefId="Odakyū-Sagamihara_Odakyū-Sagamihara" isBlocking="false"/>
		<stopFacility id="Odakyū-Sagamihara_Sagami-Ōno" x="139.4312" y="35.524770000000004" linkRefId="Odakyū-Sagamihara_Sagami-Ōno" isBlocking="false"/>
		<stopFacility id="Odakyū-Sagamihara_Sōbudai-mae" x="139.41635" y="35.5081" linkRefId="Odakyū-Sagamihara_Sōbudai-mae" isBlocking="false"/>
		<stopFacility id="Odawara_Ashigara" x="139.1552" y="35.264595" linkRefId="Odawara_Ashigara" isBlocking="false"/>
		<stopFacility id="Odawara_Hadano" x="139.1914" y="35.313315" linkRefId="Odawara_Hadano" isBlocking="false"/>
		<stopFacility id="Odawara_Kaisei" x="139.1458" y="35.29194" linkRefId="Odawara_Kaisei" isBlocking="false"/>
		<stopFacility id="Odawara_Odawara" x="139.1559" y="35.25707" linkRefId="Odawara_Odawara" isBlocking="false"/>
		<stopFacility id="Omotesandō_Kasumigaseki" x="139.73215" y="35.668319999999994" linkRefId="Omotesandō_Kasumigaseki" isBlocking="false"/>
		<stopFacility id="Omotesandō_Nogizaka" x="139.71935000000002" y="35.66585499999999" linkRefId="Omotesandō_Nogizaka" isBlocking="false"/>
		<stopFacility id="Sagami-Ōno_Ebina" x="139.4153" y="35.49342" linkRefId="Sagami-Ōno_Ebina" isBlocking="false"/>
		<stopFacility id="Sagami-Ōno_Hon-Atsugi" x="139.4012" y="35.485925" linkRefId="Sagami-Ōno_Hon-Atsugi" isBlocking="false"/>
		<stopFacility id="Sagami-Ōno_Machida" x="139.4423" y="35.539" linkRefId="Sagami-Ōno_Machida" isBlocking="false"/>
		<stopFacility id="Sagami-Ōno_Odakyū-Sagamihara" x="139.4312" y="35.524770000000004" linkRefId="Sagami-Ōno_Odakyū-Sagamihara" isBlocking="false"/>
		<stopFacility id="Sagami-Ōno_Sagami-Ōno" x="139.4388" y="35.53329" linkRefId="Sagami-Ōno_Sagami-Ōno" isBlocking="false"/>
		<stopFacility id="Sangūbashi_Minami-Shinjuku" x="139.69575" y="35.680645" linkRefId="Sangūbashi_Minami-Shinjuku" isBlocking="false"/>
		<stopFacility id="Sangūbashi_Sangūbashi" x="139.6933" y="35.67813" linkRefId="Sangūbashi_Sangūbashi" isBlocking="false"/>
		<stopFacility id="Sangūbashi_Yoyogi-Hachiman" x="139.69085" y="35.67379" linkRefId="Sangūbashi_Yoyogi-Hachiman" isBlocking="false"/>
		<stopFacility id="Seijōgakuen-Mae_Kitami" x="139.59175" y="35.637969999999996" linkRefId="Seijōgakuen-Mae_Kitami" isBlocking="false"/>
		<stopFacility id="Seijōgakuen-Mae_Komae" x="139.58735000000001" y="35.635715" linkRefId="Seijōgakuen-Mae_Komae" isBlocking="false"/>
		<stopFacility id="Seijōgakuen-Mae_Kyōdō" x="139.61790000000002" y="35.64566" linkRefId="Seijōgakuen-Mae_Kyōdō" isBlocking="false"/>
		<stopFacility id="Seijōgakuen-Mae_Noborito" x="139.5834" y="35.62994" linkRefId="Seijōgakuen-Mae_Noborito" isBlocking="false"/>
		<stopFacility id="Seijōgakuen-Mae_Seijōgakuen-Mae" x="139.598" y="35.63981" linkRefId="Seijōgakuen-Mae_Seijōgakuen-Mae" isBlocking="false"/>
		<stopFacility id="Seijōgakuen-Mae_Soshigaya-Ōkura" x="139.60345" y="35.641414999999995" linkRefId="Seijōgakuen-Mae_Soshigaya-Ōkura" isBlocking="false"/>
		<stopFacility id="Sendagi_Nishi-Nippori" x="139.76575" y="35.729704999999996" linkRefId="Sendagi_Nishi-Nippori" isBlocking="false"/>
		<stopFacility id="Setagaya-Daita_Setagaya-Daita" x="139.6608" y="35.65814" linkRefId="Setagaya-Daita_Setagaya-Daita" isBlocking="false"/>
		<stopFacility id="Setagaya-Daita_Shimo-Kitazawa" x="139.664" y="35.659819999999996" linkRefId="Setagaya-Daita_Shimo-Kitazawa" isBlocking="false"/>
		<stopFacility id="Setagaya-Daita_Umegaoka" x="139.65755000000001" y="35.65719" linkRefId="Setagaya-Daita_Umegaoka" isBlocking="false"/>
		<stopFacility id="Shibusawa_Hadano" x="139.20625" y="35.37173" linkRefId="Shibusawa_Hadano" isBlocking="false"/>
		<stopFacility id="Shibusawa_Shibusawa" x="139.1856" y="35.3739" linkRefId="Shibusawa_Shibusawa" isBlocking="false"/>
		<stopFacility id="Shibusawa_Shin-Matsuda" x="139.16219999999998" y="35.35911" linkRefId="Shibusawa_Shin-Matsuda" isBlocking="false"/>
		<stopFacility id="Shimo-Kitazawa_Higashi-Kitazawa" x="139.66985" y="35.66329" linkRefId="Shimo-Kitazawa_Higashi-Kitazawa" isBlocking="false"/>
		<stopFacility id="Shimo-Kitazawa_Kyōdō" x="139.6525" y="35.656504999999996" linkRefId="Shimo-Kitazawa_Kyōdō" isBlocking="false"/>
		<stopFacility id="Shimo-Kitazawa_Noborito" x="139.618" y="35.640784999999994" linkRefId="Shimo-Kitazawa_Noborito" isBlocking="false"/>
		<stopFacility id="Shimo-Kitazawa_Sagami-Ōno" x="139.553" y="35.597395" linkRefId="Shimo-Kitazawa_Sagami-Ōno" isBlocking="false"/>
		<stopFacility id="Shimo-Kitazawa_Setagaya-Daita" x="139.664" y="35.659819999999996" linkRefId="Shimo-Kitazawa_Setagaya-Daita" isBlocking="false"/>
		<stopFacility id="Shimo-Kitazawa_Shimo-Kitazawa" x="139.6672" y="35.6615" linkRefId="Shimo-Kitazawa_Shimo-Kitazawa" isBlocking="false"/>
		<stopFacility id="Shimo-Kitazawa_Yoyogi-Uehara" x="139.673" y="35.664995" linkRefId="Shimo-Kitazawa_Yoyogi-Uehara" isBlocking="false"/>
		<stopFacility id="Shin-Matsuda_Kaisei" x="139.13725" y="35.335565" linkRefId="Shin-Matsuda_Kaisei" isBlocking="false"/>
		<stopFacility id="Shin-Matsuda_Shibusawa" x="139.16219999999998" y="35.35911" linkRefId="Shin-Matsuda_Shibusawa" isBlocking="false"/>
		<stopFacility id="Shin-Matsuda_Shin-Matsuda" x="139.1388" y="35.34432" linkRefId="Shin-Matsuda_Shin-Matsuda" isBlocking="false"/>
		<stopFacility id="Shin-Yurigaoka_Kakio" x="139.50189999999998" y="35.595985" linkRefId="Shin-Yurigaoka_Kakio" isBlocking="false"/>
		<stopFacility id="Shin-Yurigaoka_Machida" x="139.47625" y="35.573885000000004" linkRefId="Shin-Yurigaoka_Machida" isBlocking="false"/>
		<stopFacility id="Shin-Yurigaoka_Mukōgaoka-Yūen" x="139.5351" y="35.609944999999996" linkRefId="Shin-Yurigaoka_Mukōgaoka-Yūen" isBlocking="false"/>
		<stopFacility id="Shin-Yurigaoka_Noborito" x="139.53775000000002" y="35.611565" linkRefId="Shin-Yurigaoka_Noborito" isBlocking="false"/>
		<stopFacility id="Shin-Yurigaoka_Sagami-Ōno" x="139.47275" y="35.568175" linkRefId="Shin-Yurigaoka_Sagami-Ōno" isBlocking="false"/>
		<stopFacility id="Shin-Yurigaoka_Shin-Yurigaoka" x="139.5067" y="35.60306" linkRefId="Shin-Yurigaoka_Shin-Yurigaoka" isBlocking="false"/>
		<stopFacility id="Shin-Yurigaoka_Yurigaoka" x="139.5109" y="35.60586" linkRefId="Shin-Yurigaoka_Yurigaoka" isBlocking="false"/>
		<stopFacility id="Shin-ochanomizu_Yushima" x="139.7679" y="35.702690000000004" linkRefId="Shin-ochanomizu_Yushima" isBlocking="false"/>
		<stopFacility id="Shinjuku_Machida" x="139.5725" y="35.61759" linkRefId="Shinjuku_Machida" isBlocking="false"/>
		<stopFacility id="Shinjuku_Minami-Shinjuku" x="139.6987" y="35.686814999999996" linkRefId="Shinjuku_Minami-Shinjuku" isBlocking="false"/>
		<stopFacility id="Shinjuku_Shimo-Kitazawa" x="139.6832" y="35.675985" linkRefId="Shinjuku_Shimo-Kitazawa" isBlocking="false"/>
		<stopFacility id="Shinjuku_Shin-Yurigaoka" x="139.60295" y="35.646765" linkRefId="Shinjuku_Shin-Yurigaoka" isBlocking="false"/>
		<stopFacility id="Shinjuku_Yoyogi-Uehara" x="139.689" y="35.67948" linkRefId="Shinjuku_Yoyogi-Uehara" isBlocking="false"/>
		<stopFacility id="Soshigaya-Ōkura_Chitose-Funabashi" x="139.6171" y="35.645465" linkRefId="Soshigaya-Ōkura_Chitose-Funabashi" isBlocking="false"/>
		<stopFacility id="Soshigaya-Ōkura_Seijōgakuen-Mae" x="139.60345" y="35.641414999999995" linkRefId="Soshigaya-Ōkura_Seijōgakuen-Mae" isBlocking="false"/>
		<stopFacility id="Soshigaya-Ōkura_Soshigaya-Ōkura" x="139.6089" y="35.64302" linkRefId="Soshigaya-Ōkura_Soshigaya-Ōkura" isBlocking="false"/>
		<stopFacility id="Sōbudai-mae_Odakyū-Sagamihara" x="139.41635" y="35.5081" linkRefId="Sōbudai-mae_Odakyū-Sagamihara" isBlocking="false"/>
		<stopFacility id="Sōbudai-mae_Sōbudai-mae" x="139.4091" y="35.49995" linkRefId="Sōbudai-mae_Sōbudai-mae" isBlocking="false"/>
		<stopFacility id="Sōbudai-mae_Zama" x="139.40449999999998" y="35.49084" linkRefId="Sōbudai-mae_Zama" isBlocking="false"/>
		<stopFacility id="Tamagawagakuen-mae_Machida" x="139.45485" y="35.554495" linkRefId="Tamagawagakuen-mae_Machida" isBlocking="false"/>
		<stopFacility id="Tamagawagakuen-mae_Tamagawagakuen-mae" x="139.4639" y="35.56428" linkRefId="Tamagawagakuen-mae_Tamagawagakuen-mae" isBlocking="false"/>
		<stopFacility id="Tamagawagakuen-mae_Tsurukawa" x="139.4734" y="35.5738" linkRefId="Tamagawagakuen-mae_Tsurukawa" isBlocking="false"/>
		<stopFacility id="Tomizu_Hotaruda" x="139.14875" y="35.2906945" linkRefId="Tomizu_Hotaruda" isBlocking="false"/>
		<stopFacility id="Tomizu_Kayama" x="139.144028" y="35.3036745" linkRefId="Tomizu_Kayama" isBlocking="false"/>
		<stopFacility id="Tomizu_Tomizu" x="139.145556" y="35.296389" linkRefId="Tomizu_Tomizu" isBlocking="false"/>
		<stopFacility id="Tsurukawa_Kakio" x="139.49" y="35.586115" linkRefId="Tsurukawa_Kakio" isBlocking="false"/>
		<stopFacility id="Tsurukawa_Tamagawagakuen-mae" x="139.4734" y="35.5738" linkRefId="Tsurukawa_Tamagawagakuen-mae" isBlocking="false"/>
		<stopFacility id="Tsurukawa_Tsurukawa" x="139.4829" y="35.58332" linkRefId="Tsurukawa_Tsurukawa" isBlocking="false"/>
		<stopFacility id="Tsurumaki-Onsen_Isehara" x="139.29615" y="35.388684999999995" linkRefId="Tsurumaki-Onsen_Isehara" isBlocking="false"/>
		<stopFacility id="Tsurumaki-Onsen_Tsurumaki-Onsen" x="139.2779" y="35.38099" linkRefId="Tsurumaki-Onsen_Tsurumaki-Onsen" isBlocking="false"/>
		<stopFacility id="Tsurumaki-Onsen_Tōkaidaigaku-mae" x="139.2746" y="35.37708" linkRefId="Tsurumaki-Onsen_Tōkaidaigaku-mae" isBlocking="false"/>
		<stopFacility id="Tōkaidaigaku-mae_Hadano" x="139.2491" y="35.371365" linkRefId="Tōkaidaigaku-mae_Hadano" isBlocking="false"/>
		<stopFacility id="Tōkaidaigaku-mae_Tsurumaki-Onsen" x="139.2746" y="35.37708" linkRefId="Tōkaidaigaku-mae_Tsurumaki-Onsen" isBlocking="false"/>
		<stopFacility id="Tōkaidaigaku-mae_Tōkaidaigaku-mae" x="139.2713" y="35.37317" linkRefId="Tōkaidaigaku-mae_Tōkaidaigaku-mae" isBlocking="false"/>
		<stopFacility id="Umegaoka_Gōtokuji" x="139.65120000000002" y="35.655175" linkRefId="Umegaoka_Gōtokuji" isBlocking="false"/>
		<stopFacility id="Umegaoka_Setagaya-Daita" x="139.65755000000001" y="35.65719" linkRefId="Umegaoka_Setagaya-Daita" isBlocking="false"/>
		<stopFacility id="Umegaoka_Umegaoka" x="139.6543" y="35.65624" linkRefId="Umegaoka_Umegaoka" isBlocking="false"/>
		<stopFacility id="Yomiuri-Land-mae_Ikuta" x="139.53385" y="35.61483" linkRefId="Yomiuri-Land-mae_Ikuta" isBlocking="false"/>
		<stopFacility id="Yomiuri-Land-mae_Yomiuri-Land-mae" x="139.5271" y="35.61484" linkRefId="Yomiuri-Land-mae_Yomiuri-Land-mae" isBlocking="false"/>
		<stopFacility id="Yomiuri-Land-mae_Yurigaoka" x="139.5211" y="35.61175" linkRefId="Yomiuri-Land-mae_Yurigaoka" isBlocking="false"/>
		<stopFacility id="Yoyogi-Hachiman_Sangūbashi" x="139.69085" y="35.67379" linkRefId="Yoyogi-Hachiman_Sangūbashi" isBlocking="false"/>
		<stopFacility id="Yoyogi-Hachiman_Yoyogi-Hachiman" x="139.6884" y="35.66945" linkRefId="Yoyogi-Hachiman_Yoyogi-Hachiman" isBlocking="false"/>
		<stopFacility id="Yoyogi-Hachiman_Yoyogi-Uehara" x="139.6836" y="35.66897" linkRefId="Yoyogi-Hachiman_Yoyogi-Uehara" isBlocking="false"/>
		<stopFacility id="Yoyogi-Uehara_Higashi-Kitazawa" x="139.67565000000002" y="35.666785000000004" linkRefId="Yoyogi-Uehara_Higashi-Kitazawa" isBlocking="false"/>
		<stopFacility id="Yoyogi-Uehara_Shimo-Kitazawa" x="139.673" y="35.664995" linkRefId="Yoyogi-Uehara_Shimo-Kitazawa" isBlocking="false"/>
		<stopFacility id="Yoyogi-Uehara_Shinjuku" x="139.689" y="35.67948" linkRefId="Yoyogi-Uehara_Shinjuku" isBlocking="false"/>
		<stopFacility id="Yoyogi-Uehara_Yoyogi-Hachiman" x="139.6836" y="35.66897" linkRefId="Yoyogi-Uehara_Yoyogi-Hachiman" isBlocking="false"/>
		<stopFacility id="Yoyogi-Uehara_Yoyogi-Uehara" x="139.6788" y="35.66849" linkRefId="Yoyogi-Uehara_Yoyogi-Uehara" isBlocking="false"/>
		<stopFacility id="Yoyogi-Uehara_Yoyogi-koen" x="139.68375" y="35.668875" linkRefId="Yoyogi-Uehara_Yoyogi-koen" isBlocking="false"/>
		<stopFacility id="Yoyogi-koen_Meiji-jingumae-(Harajuku)" x="139.6959" y="35.669375" linkRefId="Yoyogi-koen_Meiji-jingumae-(Harajuku)" isBlocking="false"/>
		<stopFacility id="Yurigaoka_Shin-Yurigaoka" x="139.5109" y="35.60586" linkRefId="Yurigaoka_Shin-Yurigaoka" isBlocking="false"/>
		<stopFacility id="Yurigaoka_Yomiuri-Land-mae" x="139.5211" y="35.61175" linkRefId="Yurigaoka_Yomiuri-Land-mae" isBlocking="false"/>
		<stopFacility id="Yurigaoka_Yurigaoka" x="139.5151" y="35.60866" linkRefId="Yurigaoka_Yurigaoka" isBlocking="false"/>
		<stopFacility id="Yushima_Nezu" x="139.76760000000002" y="35.712845" linkRefId="Yushima_Nezu" isBlocking="false"/>
		<stopFacility id="Zama_Ebina" x="139.39585" y="35.46764" linkRefId="Zama_Ebina" isBlocking="false"/>
		<stopFacility id="Zama_Sōbudai-mae" x="139.40449999999998" y="35.49084" linkRefId="Zama_Sōbudai-mae" isBlocking="false"/>
		<stopFacility id="Zama_Zama" x="139.3999" y="35.48173" linkRefId="Zama_Zama" isBlocking="false"/>
		<stopFacility id="Ōtemachi_Kita-Senju" x="139.7842" y="35.718469999999996" linkRefId="Ōtemachi_Kita-Senju" isBlocking="false"/>
		<stopFacility id="Ōtemachi_Shin-ochanomizu" x="139.7648" y="35.692255" linkRefId="Ōtemachi_Shin-ochanomizu" isBlocking="false"/>
	</transitStops>
	<transitLine id="Ayase Commuter Express (Hon-Atsugi)">
		<transitRoute id="Ayase Commuter Express (Hon-Atsugi)">
			<transportMode>pt</transportMode>
			<routeProfile>
				<stop refId="Hon-Atsugi_Atsugi" arrivalOffset="00:00:00" departureOffset="00:00:00" awaitDeparture="false"/>
				<stop refId="Atsugi_Ebina" arrivalOffset="00:00:00" departureOffset="00:00:00" awaitDeparture="false"/>
				<stop refId="Ebina_Zama" arrivalOffset="00:00:00" departureOffset="00:00:00" awaitDeparture="false"/>
				<stop refId="Zama_Sōbudai-mae" arrivalOffset="00:00:00" departureOffset="00:00:00" awaitDeparture="false"/>
				<stop refId="Sōbudai-mae_Odakyū-Sagamihara" arrivalOffset="00:00:00" departureOffset="00:00:00" awaitDeparture="false"/>
				<stop refId="Odakyū-Sagamihara_Sagami-Ōno" arrivalOffset="00:00:00" departureOffset="00:00:00" awaitDeparture="false"/>
				<stop refId="Sagami-Ōno_Machida" arrivalOffset="00:00:00" departureOffset="00:00:00" awaitDeparture="false"/>
				<stop refId="Machida_Tamagawagakuen-mae" arrivalOffset="00:00:00" departureOffset="00:00:00" awaitDeparture="false"/>
				<stop refId="Tamagawagakuen-mae_Tsurukawa" arrivalOffset="00:00:00" departureOffset="00:00:00" awaitDeparture="false"/>
				<stop refId="Tsurukawa_Kakio" arrivalOffset="00:00:00" departureOffset="00:00:00" awaitDeparture="false"/>
				<stop refId="Kakio_Shin-Yurigaoka" arrivalOffset="00:00:00" departureOffset="00:00:00" awaitDeparture="false"/>
				<stop refId="Shin-Yurigaoka_Yurigaoka" arrivalOffset="00:00:00" departureOffset="00:00:00" awaitDeparture="false"/>
				<stop refId="Yurigaoka_Yomiuri-Land-mae" arrivalOffset="00:00:00" departureOffset="00:00:00" awaitDeparture="false"/>
				<stop refId="Yomiuri-Land-mae_Ikuta" arrivalOffset="00:00:00" departureOffset="00:00:00" awaitDeparture="false"/>
				<stop refId="Ikuta_Mukōgaoka-Yūen" arrivalOffset="00:00:00" departureOffset="00:00:00" awaitDeparture="false"/>
				<stop refId="Mukōgaoka-Yūen_Noborito" arrivalOffset="00:00:00" departureOffset="00:00:00" awaitDeparture="false"/>
				<stop refId="Noborito_Seijōgakuen-Mae" arrivalOffset="00:00:00" departureOffset="00:00:00" awaitDeparture="false"/>
				<stop refId="Seijōgakuen-Mae_Kyōdō" arrivalOffset="00:00:00" departureOffset="00:00:00" awaitDeparture="false"/>
				<stop refId="Kyōdō_Shimo-Kitazawa" arrivalOffset="00:00:00" departureOffset="00:00:00" awaitDeparture="false"/>
				<stop refId="Shimo-Kitazawa_Yoyogi-Uehara" arrivalOffset="00:00:00" departureOffset="00:00:00" awaitDeparture="false"/>
				<stop refId="Yoyogi-Uehara_Yoyogi-koen" arrivalOffset="00:00:00" departureOffset="00:00:00" awaitDeparture="false"/>
				<stop refId="Yoyogi-koen_Meiji-jingumae-(Harajuku)" arrivalOffset="00:00:00" departureOffset="00:00:00" awaitDeparture="false"/>
				<stop refId="Meiji-jingumae-(Harajuku)_Omotesandō" arrivalOffset="00:00:00" departureOffset="00:00:00" awaitDeparture="false"/>
				<stop refId="Omotesandō_Nogizaka" arrivalOffset="00:00:00" departureOffset="00:00:00" awaitDeparture="false"/>
				<stop refId="Nogizaka_Akasaka" arrivalOffset="00:00:00" departureOffset="00:00:00" awaitDeparture="false"/>
				<stop refId="Akasaka_Kokkai-gijidō-mae" arrivalOffset="00:00:00" departureOffset="00:00:00" awaitDeparture="false"/>
				<stop refId="Kokkai-gijidō-mae_Kasumigaseki" arrivalOffset="00:00:00" departureOffset="00:00:00" awaitDeparture="false"/>
				<stop refId="Kasumigaseki_Hibiya" arrivalOffset="00:00:00" departureOffset="00:00:00" awaitDeparture="false"/>