<?xml version="1.0" encoding="UTF-8"?>

<vehicleDefinitions xmlns="http://www.matsim.org/files/dtd" xmlns:xsi="http://www.w3.org/2001/XMLSchema-instance" xsi:schemaLocation="http://www.matsim.org/files/dtd http://www.matsim.org/files/dtd/vehicleDefinitions_v2.0.xsd">

	<vehicleType id="pt">

		<capacity seats="666" standingRoomInPersons="999">

		</capacity>
		<length meter="54.0"/>
		<width meter="2.0"/>
		<maximumVelocity meterPerSecond="25.55555555555555"/>
		<costInformation>

		</costInformation>
		<passengerCarEquivalents pce="1.0"/>
		<networkMode networkMode="pt"/>
		<flowEfficiencyFactor factor="1.0"/>
	</vehicleType>

	<vehicle id="Ayase Commuter Express (Hon-Atsugi)_064700" type="pt"/>
	<vehicle id="Ayase Commuter Express (Hon-Atsugi)_071100" type="pt"/>
	<vehicle id="Ayase Commuter Express (Hon-Atsugi)_073100" type="pt"/>
	<vehicle id="Ayase Commuter Express (Isehara)_055500" type="pt"/>
	<vehicle id="Ayase Commuter Express (Isehara)_061700" type="pt"/>
	<vehicle id="Ayase Commuter Express (Isehara)_073200" type="pt"/>
	<vehicle id="Ayase Express_052900" type="pt"/>
	<vehicle id="Ayase Express_055200" type="pt"/>
	<vehicle id="Ayase Express_061100" type="pt"/>
	<vehicle id="Ayase Express (Mukogaoka-yuen)_093400" type="pt"/>
	<vehicle id="Ayase Express (Mukogaoka-yuen)_124100" type="pt"/>
	<vehicle id="Ayase Express (Mukogaoka-yuen)_130100" type="pt"/>
	<vehicle id="Ayase Express (Mukogaoka-yuen)_132100" type="pt"/>
	<vehicle id="Ayase Express (Mukogaoka-yuen)_134100" type="pt"/>
	<vehicle id="Ayase Express (Mukogaoka-yuen)_140100" type="pt"/>
	<vehicle id="Ayase Express (Mukogaoka-yuen)_142100" type="pt"/>
	<vehicle id="Ayase Express (Mukogaoka-yuen)_144100" type="pt"/>
	<vehicle id="Ayase Express (Mukogaoka-yuen)_150100" type="pt"/>
	<vehicle id="Ayase Express (Mukogaoka-yuen)_152100" type="pt"/>
	<vehicle id="Ayase Express (Mukogaoka-yuen)_154100" type="pt"/>
	<vehicle id="Ayase Express (Mukogaoka-yuen)_095900" type="pt"/>
	<vehicle id="Ayase Express (Mukogaoka-yuen)_210400" type="pt"/>
	<vehicle id="Ayase Express (Mukogaoka-yuen)_212400" type="pt"/>
	<vehicle id="Ayase Express (Mukogaoka-yuen)_102100" type="pt"/>
	<vehicle id="Ayase Express (Mukogaoka-yuen)_104100" type="pt"/>
	<vehicle id="Ayase Express (Mukogaoka-yuen)_110100" type="pt"/>
	<vehicle id="Ayase Express (Mukogaoka-yuen)_112100" type="pt"/>
	<vehicle id="Ayase Express (Mukogaoka-yuen)_114100" type="pt"/>
	<vehicle id="Ayase Express (Mukogaoka-yuen)_120100" type="pt"/>
	<vehicle id="Ayase Express (Mukogaoka-yuen)_122100" type="pt"/>
	<vehicle id="Ayase Local (Mukogaoka-yuen)_070900" type="pt"/>
	<vehicle id="Ayase Local (Mukogaoka-yuen)_083600" type="pt"/>
	<vehicle id="Ayase Local (Mukogaoka-yuen)_091500" type="pt"/>
	<vehicle id="Ayase Local (Mukogaoka-yuen)_173500" type="pt"/>
	<vehicle id="Ayase Local (Mukogaoka-yuen)_181500" type="pt"/>
	<vehicle id="Ayase Local (Mukogaoka-yuen)_185500" type="pt"/>
	<vehicle id="Ayase Local (Mukogaoka-yuen)_190400" type="pt"/>
	<vehicle id="Ayase Local (Mukogaoka-yuen)_200500" type="pt"/>
	<vehicle id="Ayase Local (Mukogaoka-yuen)_201600" type="pt"/>
	<vehicle id="Ayase Local (Mukogaoka-yuen)_203300" type="pt"/>
	<vehicle id="Ayase Local (Mukogaoka-yuen)_210300" type="pt"/>
	<vehicle id="Ayase Local (Mukogaoka-yuen)_072100" type="pt"/>
	<vehicle id="Ayase Local (Mukogaoka-yuen)_221200" type="pt"/>
	<vehicle id="Ayase Local (Mukogaoka-yuen)_073100" type="pt"/>
	<vehicle id="Ayase Local (Mukogaoka-yuen)_074200" type="pt"/>
	<vehicle id="Ayase Local (Mukogaoka-yuen)_075100" type="pt"/>
	<vehicle id="Ayase Local (Mukogaoka-yuen)_080200" type="pt"/>
	<vehicle id="Ayase Local (Mukogaoka-yuen)_081200" type="pt"/>
	<vehicle id="Ayase Local (Mukogaoka-yuen)_081800" type="pt"/>
	<vehicle id="Ayase Local (Mukogaoka-yuen)_082700" type="pt"/>
	<vehicle id="Ayase Local - (Seijogakuen-mae)_071600" type="pt"/>
	<vehicle id="Ayase Local - (Seijogakuen-mae)_181400" type="pt"/>
	<vehicle id="Ayase Local - (Seijogakuen-mae)_183300" type="pt"/>
	<vehicle id="Ayase Local - (Seijogakuen-mae)_084300" type="pt"/>
	<vehicle id="Ayase Local - (Seijogakuen-mae)_090100" type="pt"/>
	<vehicle id="Ayase Local - (Seijogakuen-mae)_091000" type="pt"/>
	<vehicle id="Ayase Local - (Seijogakuen-mae)_094500" type="pt"/>
	<vehicle id="Ayase Local - (Seijogakuen-mae)_100800" type="pt"/>
	<vehicle id="Ayase Local - (Seijogakuen-mae)_102900" type="pt"/>
	<vehicle id="Ayase Local - (Seijogakuen-mae)_165000" type="pt"/>
	<vehicle id="Ayase Local - (Seijogakuen-mae)_180300" type="pt"/>
	<vehicle id="Ayase Semi Express (Ebina)_070400" type="pt"/>
	<vehicle id="Ayase Semi Express (Ebina)_072400" type="pt"/>
	<vehicle id="Ayase Semi Express (Ebina)_223000" type="pt"/>
	<vehicle id="Ayase Semi Express (Mukogaoka-yuen)_160100" type="pt"/>
	<vehicle id="Ayase Semi Express (Mukogaoka-yuen)_162000" type="pt"/>
	<vehicle id="Ayase Semi Express (Mukogaoka-yuen)_165100" type="pt"/>
	<vehicle id="Ayase Semi Express (Mukogaoka-yuen)_183700" type="pt"/>
	<vehicle id="Ayase Semi Express (Mukogaoka-yuen)_193700" type="pt"/>
	<vehicle id="Ayase Semi Express (Mukogaoka-yuen)_195700" type="pt"/>
	<vehicle id="Ayase Semi Express (Mukogaoka-yuen)_204600" type="pt"/>
	<vehicle id="Ayase Semi Express (Seijogakuen-mae)_085200" type="pt"/>
	<vehicle id="Ayase Semi Express (Seijogakuen-mae)_213700" type="pt"/>
	<vehicle id="Ayase Semi Express (Seijogakuen-mae)_091800" type="pt"/>
	<vehicle id="Ayase Semi Express (Seijogakuen-mae)_170200" type="pt"/>
	<vehicle id="Ayase Semi Express (Seijogakuen-mae)_171100" type="pt"/>
	<vehicle id="Ayase Semi Express (Seijogakuen-mae)_172400" type="pt"/>
	<vehicle id="Ayase Semi Express (Seijogakuen-mae)_175300" type="pt"/>
	<vehicle id="Ayase Semi Express (Seijogakuen-mae)_185400" type="pt"/>
	<vehicle id="Ayase Semi Express (Seijogakuen-mae)_195400" type="pt"/>
	<vehicle id="Ayase Semi Express (Seijogakuen-mae)_203400" type="pt"/>
	<vehicle id="tr_1" type="pt"/>
	<vehicle id="tr_10" type="pt"/>
	<vehicle id="tr_100" type="pt"/>
	<vehicle id="tr_101" type="pt"/>
	<vehicle id="tr_98" type="pt"/>
	<vehicle id="tr_99" type="pt"/>
	<vehicle id="Chiyoda Line_500" type="pt"/>
	<vehicle id="Chiyoda Line_623" type="pt"/>
	<vehicle id="Chiyoda Line_1204" type="pt"/>
	<vehicle id="Chiyoda Line_1209" type="pt"/>
	<vehicle id="Chiyoda Line_1214" type="pt"/>
	<vehicle id="Chiyoda Line_1219" type="pt"/>
	<vehicle id="Chiyoda Line_1224" type="pt"/>
	<vehicle id="Chiyoda Line_1229" type="pt"/>
	<vehicle id="Chiyoda Line_1234" type="pt"/>
	<vehicle id="Chiyoda Line_1239" type="pt"/>
	<vehicle id="Chiyoda Line_1244" type="pt"/>
	<vehicle id="Chiyoda Line_1249" type="pt"/>
	<vehicle id="Chiyoda Line_627" type="pt"/>
	<vehicle id="Chiyoda Line_1254" type="pt"/>
	<vehicle id="Chiyoda Line_1259" type="pt"/>
	<vehicle id="Chiyoda Line_1304" type="pt"/>
	<vehicle id="Chiyoda Line_1309" type="pt"/>
	<vehicle id="Chiyoda Line_1314" type="pt"/>
	<vehicle id="Chiyoda Line_1319" type="pt"/>
	<vehicle id="Chiyoda Line_1324" type="pt"/>
	<vehicle id="Chiyoda Line_1329" type="pt"/>
	<vehicle id="Chiyoda Line_1334" type="pt"/>
	<vehicle id="Chiyoda Line_1339" type="pt"/>
	<vehicle id="Chiyoda Line_631" type="pt"/>
	<vehicle id="Chiyoda Line_1344" type="pt"/>
	<vehicle id="Chiyoda Line_1349" type="pt"/>
	<vehicle id="Chiyoda Line_1354" type="pt"/>
	<vehicle id="Chiyoda Line_1359" type="pt"/>
	<vehicle id="Chiyoda Line_1404" type="pt"/>
	<vehicle id="Chiyoda Line_1409" type="pt"/>
	<vehicle id="Chiyoda Line_1414" type="pt"/>
	<vehicle id="Chiyoda Line_1419" type="pt"/>
	<vehicle id="Chiyoda Line_1424" type="pt"/>
	<vehicle id="Chiyoda Line_1429" type="pt"/>
	<vehicle id="Chiyoda Line_635" type="pt"/>
	<vehicle id="Chiyoda Line_1434" type="pt"/>
	<vehicle id="Chiyoda Line_1439" type="pt"/>
	<vehicle id="Chiyoda Line_1444" type="pt"/>
	<vehicle id="Chiyoda Line_1449" type="pt"/>
	<vehicle id="Chiyoda Line_1454" type="pt"/>
	<vehicle id="Chiyoda Line_1459" type="pt"/>
	<vehicle id="Chiyoda Line_1504" type="pt"/>
	<vehicle id="Chiyoda Line_1509" type="pt"/>
	<vehicle id="Chiyoda Line_1514" type="pt"/>
	<vehicle id="Chiyoda Line_1519" type="pt"/>
	<vehicle id="Chiyoda Line_638" type="pt"/>
	<vehicle id="Chiyoda Line_1524" type="pt"/>
	<vehicle id="Chiyoda Line_1529" type="pt"/>
	<vehicle id="Chiyoda Line_1534" type="pt"/>
	<vehicle id="Chiyoda Line_1539" type="pt"/>
	<vehicle id="Chiyoda Line_1544" type="pt"/>
	<vehicle id="Chiyoda Line_1549" type="pt"/>
	<vehicle id="Chiyoda Line_1554" type="pt"/>
	<vehicle id="Chiyoda Line_1559" type="pt"/>
	<vehicle id="Chiyoda Line_1602" type="pt"/>
	<vehicle id="Chiyoda Line_1608" type="pt"/>
	<vehicle id="Chiyoda Line_642" type="pt"/>
	<vehicle id="Chiyoda Line_1614" type="pt"/>
	<vehicle id="Chiyoda Line_1618" type="pt"/>
	<vehicle id="Chiyoda Line_1621" type="pt"/>
	<vehicle id="Chiyoda Line_1625" type="pt"/>
	<vehicle id="Chiyoda Line_1628" type="pt"/>
	<vehicle id="Chiyoda Line_1632" type="pt"/>
	<vehicle id="Chiyoda Line_1636" type="pt"/>
	<vehicle id="Chiyoda Line_1639" type="pt"/>
	<vehicle id="Chiyoda Line_1643" type="pt"/>
	<vehicle id="Chiyoda Line_1646" type="pt"/>
	<vehicle id="Chiyoda Line_645" type="pt"/>
	<vehicle id="Chiyoda Line_1651" type="pt"/>
	<vehicle id="Chiyoda Line_1654" type="pt"/>
	<vehicle id="Chiyoda Line_1659" type="pt"/>
	<vehicle id="Chiyoda Line_1703" type="pt"/>
	<vehicle id="Chiyoda Line_1708" type="pt"/>
	<vehicle id="Chiyoda Line_1712" type="pt"/>
	<vehicle id="Chiyoda Line_1715" type="pt"/>
	<vehicle id="Chiyoda Line_1718" type="pt"/>
	<vehicle id="Chiyoda Line_1722" type="pt"/>
	<vehicle id="Chiyoda Line_1725" type="pt"/>
	<vehicle id="Chiyoda Line_650" type="pt"/>
	<vehicle id="Chiyoda Line_1729" type="pt"/>
	<vehicle id="Chiyoda Line_1733" type="pt"/>
	<vehicle id="Chiyoda Line_1738" type="pt"/>
	<vehicle id="Chiyoda Line_1741" type="pt"/>
	<vehicle id="Chiyoda Line_1744" type="pt"/>
	<vehicle id="Chiyoda Line_1747" type="pt"/>
	<vehicle id="Chiyoda Line_1750" type="pt"/>
	<vehicle id="Chiyoda Line_1753" type="pt"/>
	<vehicle id="Chiyoda Line_1756" type="pt"/>
	<vehicle id="Chiyoda Line_1759" type="pt"/>
	<vehicle id="Chiyoda Line_655" type="pt"/>
	<vehicle id="Chiyoda Line_1802" type="pt"/>
	<vehicle id="Chiyoda Line_1807" type="pt"/>
	<vehicle id="Chiyoda Line_1811" type="pt"/>
	<vehicle id="Chiyoda Line_1816" type="pt"/>
	<vehicle id="Chiyoda Line_1820" type="pt"/>
	<vehicle id="Chiyoda Line_1823" type="pt"/>
	<vehicle id="Chiyoda Line_1826" type="pt"/>
	<vehicle id="Chiyoda Line_1830" type="pt"/>
	<vehicle id="Chiyoda Line_1833" type="pt"/>
	<vehicle id="Chiyoda Line_1836" type="pt"/>
	<vehicle id="Chiyoda Line_700" type="pt"/>
	<vehicle id="Chiyoda Line_1839" type="pt"/>
	<vehicle id="Chiyoda Line_1843" type="pt"/>
	<vehicle id="Chiyoda Line_1846" type="pt"/>
	<vehicle id="Chiyoda Line_1849" type="pt"/>
	<vehicle id="Chiyoda Line_1855" type="pt"/>
	<vehicle id="Chiyoda Line_1859" type="pt"/>
	<vehicle id="Chiyoda Line_1904" type="pt"/>
	<vehicle id="Chiyoda Line_1908" type="pt"/>
	<vehicle id="Chiyoda Line_1913" type="pt"/>
	<vehicle id="Chiyoda Line_1917" type="pt"/>
	<vehicle id="Chiyoda Line_512" type="pt"/>
	<vehicle id="Chiyoda Line_705" type="pt"/>
	<vehicle id="Chiyoda Line_1922" type="pt"/>
	<vehicle id="Chiyoda Line_1926" type="pt"/>
	<vehicle id="Chiyoda Line_1931" type="pt"/>
	<vehicle id="Chiyoda Line_1935" type="pt"/>
	<vehicle id="Chiyoda Line_1940" type="pt"/>
	<vehicle id="Chiyoda Line_1945" type="pt"/>
	<vehicle id="Chiyoda Line_1950" type="pt"/>
	<vehicle id="Chiyoda Line_1956" type="pt"/>
	<vehicle id="Chiyoda Line_2001" type="pt"/>
	<vehicle id="Chiyoda Line_2006" type="pt"/>
	<vehicle id="Chiyoda Line_709" type="pt"/>
	<vehicle id="Chiyoda Line_2011" type="pt"/>
	<vehicle id="Chiyoda Line_2016" type="pt"/>
	<vehicle id="Chiyoda Line_2020" type="pt"/>
	<vehicle id="Chiyoda Line_2025" type="pt"/>
	<vehicle id="Chiyoda Line_2029" type="pt"/>
	<vehicle id="Chiyoda Line_2033" type="pt"/>
	<vehicle id="Chiyoda Line_2038" type="pt"/>
	<vehicle id="Chiyoda Line_2042" type="pt"/>
	<vehicle id="Chiyoda Line_2045" type="pt"/>
	<vehicle id="Chiyoda Line_2051" type="pt"/>
	<vehicle id="Chiyoda Line_713" type="pt"/>
	<vehicle id="Chiyoda Line_2057" type="pt"/>
	<vehicle id="Chiyoda Line_2102" type="pt"/>
	<vehicle id="Chiyoda Line_2107" type="pt"/>
	<vehicle id="Chiyoda Line_2112" type="pt"/>
	<vehicle id="Chiyoda Line_2116" type="pt"/>
	<vehicle id="Chiyoda Line_2121" type="pt"/>
	<vehicle id="Chiyoda Line_2126" type="pt"/>
	<vehicle id="Chiyoda Line_2131" type="pt"/>
	<vehicle id="Chiyoda Line_2135" type="pt"/>
	<vehicle id="Chiyoda Line_2140" type="pt"/>
	<vehicle id="Chiyoda Line_721" type="pt"/>
	<vehicle id="Chiyoda Line_2145" type="pt"/>
	<vehicle id="Chiyoda Line_2150" type="pt"/>
	<vehicle id="Chiyoda Line_2156" type="pt"/>
	<vehicle id="Chiyoda Line_2201" type="pt"/>
	<vehicle id="Chiyoda Line_2207" type="pt"/>
	<vehicle id="Chiyoda Line_2212" type="pt"/>
	<vehicle id="Chiyoda Line_2218" type="pt"/>
	<vehicle id="Chiyoda Line_2223" type="pt"/>
	<vehicle id="Chiyoda Line_2229" type="pt"/>
	<vehicle id="Chiyoda Line_2235" type="pt"/>
	<vehicle id="Chiyoda Line_725" type="pt"/>
	<vehicle id="Chiyoda Line_2238" type="pt"/>
	<vehicle id="Chiyoda Line_2245" type="pt"/>
	<vehicle id="Chiyoda Line_2252" type="pt"/>
	<vehicle id="Chiyoda Line_2304" type="pt"/>
	<vehicle id="Chiyoda Line_2310" type="pt"/>
	<vehicle id="Chiyoda Line_2316" type="pt"/>
	<vehicle id="Chiyoda Line_2322" type="pt"/>
	<vehicle id="Chiyoda Line_2328" type="pt"/>
	<vehicle id="Chiyoda Line_2338" type="pt"/>
	<vehicle id="Chiyoda Line_2345" type="pt"/>
	<vehicle id="Chiyoda Line_729" type="pt"/>
	<vehicle id="Chiyoda Line_2352" type="pt"/>
	<vehicle id="Chiyoda Line_732" type="pt"/>
	<vehicle id="Chiyoda Line_738" type="pt"/>
	<vehicle id="Chiyoda Line_741" type="pt"/>
	<vehicle id="Chiyoda Line_746" type="pt"/>
	<vehicle id="Chiyoda Line_526" type="pt"/>
	<vehicle id="Chiyoda Line_750" type="pt"/>
	<vehicle id="Chiyoda Line_753" type="pt"/>
	<vehicle id="Chiyoda Line_756" type="pt"/>
	<vehicle id="Chiyoda Line_759" type="pt"/>
	<vehicle id="Chiyoda Line_802" type="pt"/>
	<vehicle id="Chiyoda Line_806" type="pt"/>
	<vehicle id="Chiyoda Line_809" type="pt"/>
	<vehicle id="Chiyoda Line_812" type="pt"/>
	<vehicle id="Chiyoda Line_814" type="pt"/>
	<vehicle id="Chiyoda Line_816" type="pt"/>
	<vehicle id="Chiyoda Line_536" type="pt"/>
	<vehicle id="Chiyoda Line_819" type="pt"/>
	<vehicle id="Chiyoda Line_822" type="pt"/>
	<vehicle id="Chiyoda Line_824" type="pt"/>
	<vehicle id="Chiyoda Line_827" type="pt"/>
	<vehicle id="Chiyoda Line_830" type="pt"/>
	<vehicle id="Chiyoda Line_832" type="pt"/>
	<vehicle id="Chiyoda Line_835" type="pt"/>
	<vehicle id="Chiyoda Line_838" type="pt"/>
	<vehicle id="Chiyoda Line_841" type="pt"/>
	<vehicle id="Chiyoda Line_843" type="pt"/>
	<vehicle id="Chiyoda Line_546" type="pt"/>
	<vehicle id="Chiyoda Line_846" type="pt"/>
	<vehicle id="Chiyoda Line_848" type="pt"/>
	<vehicle id="Chiyoda Line_851" type="pt"/>
	<vehicle id="Chiyoda Line_853" type="pt"/>
	<vehicle id="Chiyoda Line_856" type="pt"/>
	<vehicle id="Chiyoda Line_859" type="pt"/>
	<vehicle id="Chiyoda Line_906" type="pt"/>
	<vehicle id="Chiyoda Line_908" type="pt"/>
	<vehicle id="Chiyoda Line_910" type="pt"/>
	<vehicle id="Chiyoda Line_914" type="pt"/>
	<vehicle id="Chiyoda Line_558" type="pt"/>
	<vehicle id="Chiyoda Line_916" type="pt"/>
	<vehicle id="Chiyoda Line_919" type="pt"/>
	<vehicle id="Chiyoda Line_922" type="pt"/>
	<vehicle id="Chiyoda Line_925" type="pt"/>
	<vehicle id="Chiyoda Line_928" type="pt"/>
	<vehicle id="Chiyoda Line_931" type="pt"/>
	<vehicle id="Chiyoda Line_934" type="pt"/>
	<vehicle id="Chiyoda Line_937" type="pt"/>
	<vehicle id="Chiyoda Line_940" type="pt"/>
	<vehicle id="Chiyoda Line_943" type="pt"/>
	<vehicle id="Chiyoda Line_606" type="pt"/>
	<vehicle id="Chiyoda Line_946" type="pt"/>
	<vehicle id="Chiyoda Line_949" type="pt"/>
	<vehicle id="Chiyoda Line_952" type="pt"/>
	<vehicle id="Chiyoda Line_956" type="pt"/>
	<vehicle id="Chiyoda Line_1000" type="pt"/>
	<vehicle id="Chiyoda Line_1004" type="pt"/>
	<vehicle id="Chiyoda Line_1008" type="pt"/>
	<vehicle id="Chiyoda Line_1011" type="pt"/>
	<vehicle id="Chiyoda Line_1015" type="pt"/>
	<vehicle id="Chiyoda Line_1020" type="pt"/>
	<vehicle id="Chiyoda Line_612" type="pt"/>
	<vehicle id="Chiyoda Line_1024" type="pt"/>
	<vehicle id="Chiyoda Line_1029" type="pt"/>
	<vehicle id="Chiyoda Line_1035" type="pt"/>
	<vehicle id="Chiyoda Line_1039" type="pt"/>
	<vehicle id="Chiyoda Line_1044" type="pt"/>
	<vehicle id="Chiyoda Line_1049" type="pt"/>
	<vehicle id="Chiyoda Line_1054" type="pt"/>
	<vehicle id="Chiyoda Line_1059" type="pt"/>
	<vehicle id="Chiyoda Line_1104" type="pt"/>
	<vehicle id="Chiyoda Line_1109" type="pt"/>
	<vehicle id="Chiyoda Line_617" type="pt"/>
	<vehicle id="Chiyoda Line_1114" type="pt"/>
	<vehicle id="Chiyoda Line_1119" type="pt"/>
	<vehicle id="Chiyoda Line_1124" type="pt"/>
	<vehicle id="Chiyoda Line_1129" type="pt"/>
	<vehicle id="Chiyoda Line_1134" type="pt"/>
	<vehicle id="Chiyoda Line_1139" type="pt"/>
	<vehicle id="Chiyoda Line_1144" type="pt"/>
	<vehicle id="Chiyoda Line_1149" type="pt"/>
	<vehicle id="Chiyoda Line_1154" type="pt"/>
	<vehicle id="Chiyoda Line_1159" type="pt"/>
	<vehicle id="Enoshima Limited Express_162000" type="pt"/>
	<vehicle id="Enoshima Limited Express_172000" type="pt"/>
	<vehicle id="Enoshima Limited Express_182000" type="pt"/>
	<vehicle id="Fujisawa Express_071100" type="pt"/>
	<vehicle id="Fujisawa Express_072800" type="pt"/>
	<vehicle id="Fujisawa Express_075300" type="pt"/>
	<vehicle id="Fujisawa Limited Express_192000" type="pt"/>
	<vehicle id="Fujisawa Limited Express_194000" type="pt"/>
	<vehicle id="Fujisawa Limited Express_202000" type="pt"/>
	<vehicle id="Fujisawa Limited Express_204000" type="pt"/>
	<vehicle id="Fujisawa Limited Express_212000" type="pt"/>
	<vehicle id="Fujisawa Rapid Express_080700" type="pt"/>
	<vehicle id="Fujisawa Rapid Express_111000" type="pt"/>
	<vehicle id="Fujisawa Rapid Express_113000" type="pt"/>
	<vehicle id="Fujisawa Rapid Express_115000" type="pt"/>
	<vehicle id="Fujisawa Rapid Express_121000" type="pt"/>
	<vehicle id="Fujisawa Rapid Express_123000" type="pt"/>
	<vehicle id="Fujisawa Rapid Express_125000" type="pt"/>
	<vehicle id="Fujisawa Rapid Express_131000" type="pt"/>
	<vehicle id="Fujisawa Rapid Express_133000" type="pt"/>
	<vehicle id="Fujisawa Rapid Express_135000" type="pt"/>
	<vehicle id="Fujisawa Rapid Express_141000" type="pt"/>
	<vehicle id="Fujisawa Rapid Express_082700" type="pt"/>
	<vehicle id="Fujisawa Rapid Express_143000" type="pt"/>
	<vehicle id="Fujisawa Rapid Express_145000" type="pt"/>
	<vehicle id="Fujisawa Rapid Express_151000" type="pt"/>
	<vehicle id="Fujisawa Rapid Express_153000" type="pt"/>
	<vehicle id="Fujisawa Rapid Express_155000" type="pt"/>
	<vehicle id="Fujisawa Rapid Express_161000" type="pt"/>
	<vehicle id="Fujisawa Rapid Express_163000" type="pt"/>
	<vehicle id="Fujisawa Rapid Express_165000" type="pt"/>
	<vehicle id="Fujisawa Rapid Express_171000" type="pt"/>
	<vehicle id="Fujisawa Rapid Express_173000" type="pt"/>
	<vehicle id="Fujisawa Rapid Express_084600" type="pt"/>
	<vehicle id="Fujisawa Rapid Express_175000" type="pt"/>
	<vehicle id="Fujisawa Rapid Express_181000" type="pt"/>
	<vehicle id="Fujisawa Rapid Express_183000" type="pt"/>
	<vehicle id="Fujisawa Rapid Express_185000" type="pt"/>
	<vehicle id="Fujisawa Rapid Express_191000" type="pt"/>
	<vehicle id="Fujisawa Rapid Express_193000" type="pt"/>
	<vehicle id="Fujisawa Rapid Express_195000" type="pt"/>
	<vehicle id="Fujisawa Rapid Express_201000" type="pt"/>
	<vehicle id="Fujisawa Rapid Express_203000" type="pt"/>
	<vehicle id="Fujisawa Rapid Express_205000" type="pt"/>
	<vehicle id="Fujisawa Rapid Express_091100" type="pt"/>
	<vehicle id="Fujisawa Rapid Express_211000" type="pt"/>
	<vehicle id="Fujisawa Rapid Express_213000" type="pt"/>
	<vehicle id="Fujisawa Rapid Express_215000" type="pt"/>
	<vehicle id="Fujisawa Rapid Express_222000" type="pt"/>
	<vehicle id="Fujisawa Rapid Express_224600" type="pt"/>
	<vehicle id="Fujisawa Rapid Express_093000" type="pt"/>
	<vehicle id="Fujisawa Rapid Express_095000" type="pt"/>
	<vehicle id="Fujisawa Rapid Express_101000" type="pt"/>
	<vehicle id="Fujisawa Rapid Express_103000" type="pt"/>
	<vehicle id="Fujisawa Rapid Express_105000" type="pt"/>
	<vehicle id="Gotemba Express_064000" type="pt"/>
	<vehicle id="Gotemba Express_104000" type="pt"/>
	<vehicle id="Gotemba Express_144000" type="pt"/>
	<vehicle id="Hakone Limited Express_073700" type="pt"/>
	<vehicle id="Hakone Limited Express_130000" type="pt"/>
	<vehicle id="Hakone Limited Express_132000" type="pt"/>
	<vehicle id="Hakone Limited Express_140000" type="pt"/>
	<vehicle id="Hakone Limited Express_142000" type="pt"/>
	<vehicle id="Hakone Limited Express_150000" type="pt"/>
	<vehicle id="Hakone Limited Express_152000" type="pt"/>
	<vehicle id="Hakone Limited Express_160000" type="pt"/>
	<vehicle id="Hakone Limited Express_170000" type="pt"/>
	<vehicle id="Hakone Limited Express_180000" type="pt"/>
	<vehicle id="Hakone Limited Express_081100" type="pt"/>
	<vehicle id="Hakone Limited Express_083100" type="pt"/>
	<vehicle id="Hakone Limited Express_092000" type="pt"/>
	<vehicle id="Hakone Limited Express_100000" type="pt"/>
	<vehicle id="Hakone Limited Express_110000" type="pt"/>
	<vehicle id="Hakone Limited Express_112000" type="pt"/>
	<vehicle id="Hakone Limited Express_120000" type="pt"/>
	<vehicle id="Hakone Limited Express_122000" type="pt"/>
	<vehicle id="Hon-Atsugi Express_074300" type="pt"/>
	<vehicle id="Hon-Atsugi Express_090300" type="pt"/>
	<vehicle id="Hon-Atsugi Express_233400" type="pt"/>
	<vehicle id="Hon-Atsugi Express_234600" type="pt"/>
	<vehicle id="Hon-Atsugi Limited Express_084200" type="pt"/>
	<vehicle id="Hon-Atsugi Limited Express_154000" type="pt"/>
	<vehicle id="Hon-Atsugi Limited Express_164000" type="pt"/>
	<vehicle id="Hon-Atsugi Limited Express_223000" type="pt"/>
	<vehicle id="Hon-Atsugi Local_052900" type="pt"/>
	<vehicle id="Hon-Atsugi Local_075900" type="pt"/>
	<vehicle id="Hon-Atsugi Local_080900" type="pt"/>
	<vehicle id="Hon-Atsugi Local_082800" type="pt"/>
	<vehicle id="Hon-Atsugi Local_083900" type="pt"/>
	<vehicle id="Hon-Atsugi Local_084900" type="pt"/>
	<vehicle id="Hon-Atsugi Local_090500" type="pt"/>
	<vehicle id="Hon-Atsugi Local_091600" type="pt"/>
	<vehicle id="Hon-Atsugi Local_092500" type="pt"/>
	<vehicle id="Hon-Atsugi Local_093500" type="pt"/>
	<vehicle id="Hon-Atsugi Local_094500" type="pt"/>
	<vehicle id="Hon-Atsugi Local_060100" type="pt"/>
	<vehicle id="Hon-Atsugi Local_095500" type="pt"/>
	<vehicle id="Hon-Atsugi Local_100400" type="pt"/>
	<vehicle id="Hon-Atsugi Local_101500" type="pt"/>
	<vehicle id="Hon-Atsugi Local_102500" type="pt"/>
	<vehicle id="Hon-Atsugi Local_103500" type="pt"/>
	<vehicle id="Hon-Atsugi Local_104500" type="pt"/>
	<vehicle id="Hon-Atsugi Local_105500" type="pt"/>
	<vehicle id="Hon-Atsugi Local_110500" type="pt"/>
	<vehicle id="Hon-Atsugi Local_111500" type="pt"/>
	<vehicle id="Hon-Atsugi Local_112500" type="pt"/>
	<vehicle id="Hon-Atsugi Local_061300" type="pt"/>
	<vehicle id="Hon-Atsugi Local_113500" type="pt"/>
	<vehicle id="Hon-Atsugi Local_114500" type="pt"/>
	<vehicle id="Hon-Atsugi Local_115500" type="pt"/>
	<vehicle id="Hon-Atsugi Local_120500" type="pt"/>
	<vehicle id="Hon-Atsugi Local_121500" type="pt"/>
	<vehicle id="Hon-Atsugi Local_122500" type="pt"/>
	<vehicle id="Hon-Atsugi Local_123500" type="pt"/>
	<vehicle id="Hon-Atsugi Local_124500" type="pt"/>
	<vehicle id="Hon-Atsugi Local_125500" type="pt"/>
	<vehicle id="Hon-Atsugi Local_130500" type="pt"/>
	<vehicle id="Hon-Atsugi Local_062300" type="pt"/>
	<vehicle id="Hon-Atsugi Local_131500" type="pt"/>
	<vehicle id="Hon-Atsugi Local_132500" type="pt"/>
	<vehicle id="Hon-Atsugi Local_133500" type="pt"/>
	<vehicle id="Hon-Atsugi Local_134500" type="pt"/>
	<vehicle id="Hon-Atsugi Local_135500" type="pt"/>
	<vehicle id="Hon-Atsugi Local_140500" type="pt"/>
	<vehicle id="Hon-Atsugi Local_141500" type="pt"/>
	<vehicle id="Hon-Atsugi Local_142500" type="pt"/>
	<vehicle id="Hon-Atsugi Local_143500" type="pt"/>
	<vehicle id="Hon-Atsugi Local_144500" type="pt"/>
	<vehicle id="Hon-Atsugi Local_063200" type="pt"/>
	<vehicle id="Hon-Atsugi Local_145500" type="pt"/>
	<vehicle id="Hon-Atsugi Local_150500" type="pt"/>
	<vehicle id="Hon-Atsugi Local_151500" type="pt"/>
	<vehicle id="Hon-Atsugi Local_152500" type="pt"/>
	<vehicle id="Hon-Atsugi Local_153500" type="pt"/>
	<vehicle id="Hon-Atsugi Local_154500" type="pt"/>
	<vehicle id="Hon-Atsugi Local_155500" type="pt"/>
	<vehicle id="Hon-Atsugi Local_160400" type="pt"/>
	<vehicle id="Hon-Atsugi Local_161500" type="pt"/>
	<vehicle id="Hon-Atsugi Local_162500" type="pt"/>
	<vehicle id="Hon-Atsugi Local_070400" type="pt"/>
	<vehicle id="Hon-Atsugi Local_163500" type="pt"/>
	<vehicle id="Hon-Atsugi Local_164500" type="pt"/>
	<vehicle id="Hon-Atsugi Local_165500" type="pt"/>
	<vehicle id="Hon-Atsugi Local_170400" type="pt"/>
	<vehicle id="Hon-Atsugi Local_171400" type="pt"/>
	<vehicle id="Hon-Atsugi Local_172400" type="pt"/>
	<vehicle id="Hon-Atsugi Local_173500" type="pt"/>
	<vehicle id="Hon-Atsugi Local_174400" type="pt"/>
	<vehicle id="Hon-Atsugi Local_175400" type="pt"/>
	<vehicle id="Hon-Atsugi Local_180400" type="pt"/>
	<vehicle id="Hon-Atsugi Local_072100" type="pt"/>
	<vehicle id="Hon-Atsugi Local_181400" type="pt"/>
	<vehicle id="Hon-Atsugi Local_182400" type="pt"/>
	<vehicle id="Hon-Atsugi Local_183400" type="pt"/>
	<vehicle id="Hon-Atsugi Local_184500" type="pt"/>
	<vehicle id="Hon-Atsugi Local_185400" type="pt"/>
	<vehicle id="Hon-Atsugi Local_190400" type="pt"/>
	<vehicle id="Hon-Atsugi Local_191400" type="pt"/>
	<vehicle id="Hon-Atsugi Local_192400" type="pt"/>
	<vehicle id="Hon-Atsugi Local_193400" type="pt"/>
	<vehicle id="Hon-Atsugi Local_194400" type="pt"/>
	<vehicle id="Hon-Atsugi Local_073100" type="pt"/>
	<vehicle id="Hon-Atsugi Local_195400" type="pt"/>
	<vehicle id="Hon-Atsugi Local_200400" type="pt"/>
	<vehicle id="Hon-Atsugi Local_201400" type="pt"/>
	<vehicle id="Hon-Atsugi Local_202400" type="pt"/>
	<vehicle id="Hon-Atsugi Local_203400" type="pt"/>
	<vehicle id="Hon-Atsugi Local_204400" type="pt"/>
	<vehicle id="Hon-Atsugi Local_205400" type="pt"/>
	<vehicle id="Hon-Atsugi Local_210400" type="pt"/>
	<vehicle id="Hon-Atsugi Local_211400" type="pt"/>
	<vehicle id="Hon-Atsugi Local_212400" type="pt"/>
	<vehicle id="Hon-Atsugi Local_073800" type="pt"/>
	<vehicle id="Hon-Atsugi Local_213400" type="pt"/>
	<vehicle id="Hon-Atsugi Local_214400" type="pt"/>
	<vehicle id="Hon-Atsugi Local_215400" type="pt"/>
	<vehicle id="Hon-Atsugi Local_220300" type="pt"/>
	<vehicle id="Hon-Atsugi Local_221400" type="pt"/>
	<vehicle id="Hon-Atsugi Local_222400" type="pt"/>
	<vehicle id="Hon-Atsugi Local_223500" type="pt"/>
	<vehicle id="Hon-Atsugi Local_224800" type="pt"/>
	<vehicle id="Hon-Atsugi Local_230000" type="pt"/>
	<vehicle id="Isehara Local_050000" type="pt"/>
	<vehicle id="Isehara Local_051600" type="pt"/>
	<vehicle id="Isehara Local_054500" type="pt"/>
	<vehicle id="Isehara Local_071300" type="pt"/>
	<vehicle id="Isehara Local_081900" type="pt"/>
	<vehicle id="Isehara Semi Express_180000" type="pt"/>
	<vehicle id="Isehara Semi Express_185900" type="pt"/>
	<vehicle id="Jr Yokohama Local_045300" type="pt"/>
	<vehicle id="Jr Yokohama Local_064600" type="pt"/>
	<vehicle id="Jr Yokohama Local_203700" type="pt"/>
	<vehicle id="Jr Yokohama Local_204300" type="pt"/>
	<vehicle id="Jr Yokohama Local_205300" type="pt"/>
	<vehicle id="Jr Yokohama Local_210600" type="pt"/>
	<vehicle id="Jr Yokohama Local_211600" type="pt"/>
	<vehicle id="Jr Yokohama Local_212600" type="pt"/>
	<vehicle id="Jr Yokohama Local_213300" type="pt"/>
	<vehicle id="Jr Yokohama Local_214600" type="pt"/>
	<vehicle id="Jr Yokohama Local_215700" type="pt"/>
	<vehicle id="Jr Yokohama Local_220600" type="pt"/>
	<vehicle id="Jr Yokohama Local_065500" type="pt"/>
	<vehicle id="Jr Yokohama Local_221400" type="pt"/>
	<vehicle id="Jr Yokohama Local_222200" type="pt"/>
	<vehicle id="Jr Yokohama Local_222700" type="pt"/>
	<vehicle id="Jr Yokohama Local_223800" type="pt"/>
	<vehicle id="Jr Yokohama Local_225400" type="pt"/>
	<vehicle id="Jr Yokohama Local_230900" type="pt"/>
	<vehicle id="Jr Yokohama Local_231800" type="pt"/>
	<vehicle id="Jr Yokohama Local_233200" type="pt"/>
	<vehicle id="Jr Yokohama Local_070200" type="pt"/>
	<vehicle id="Jr Yokohama Local_071100" type="pt"/>
	<vehicle id="Jr Yokohama Local_072100" type="pt"/>
	<vehicle id="Jr Yokohama Local_072900" type="pt"/>
	<vehicle id="Jr Yokohama Local_073900" type="pt"/>
	<vehicle id="Jr Yokohama Local_075100" type="pt"/>
	<vehicle id="Jr Yokohama Local_075900" type="pt"/>
	<vehicle id="Jr Yokohama Local_080400" type="pt"/>
	<vehicle id="Jr Yokohama Local_051800" type="pt"/>
	<vehicle id="Jr Yokohama Local_081200" type="pt"/>
	<vehicle id="Jr Yokohama Local_082000" type="pt"/>
	<vehicle id="Jr Yokohama Local_082800" type="pt"/>
	<vehicle id="Jr Yokohama Local_083500" type="pt"/>
	<vehicle id="Jr Yokohama Local_084300" type="pt"/>
	<vehicle id="Jr Yokohama Local_085100" type="pt"/>
	<vehicle id="Jr Yokohama Local_090000" type="pt"/>
	<vehicle id="Jr Yokohama Local_090900" type="pt"/>
	<vehicle id="Jr Yokohama Local_092100" type="pt"/>
	<vehicle id="Jr Yokohama Local_093000" type="pt"/>
	<vehicle id="Jr Yokohama Local_053500" type="pt"/>
	<vehicle id="Jr Yokohama Local_094000" type="pt"/>
	<vehicle id="Jr Yokohama Local_094800" type="pt"/>
	<vehicle id="Jr Yokohama Local_095800" type="pt"/>
	<vehicle id="Jr Yokohama Local_101200" type="pt"/>
	<vehicle id="Jr Yokohama Local_102000" type="pt"/>
	<vehicle id="Jr Yokohama Local_103200" type="pt"/>
	<vehicle id="Jr Yokohama Local_104000" type="pt"/>
	<vehicle id="Jr Yokohama Local_105200" type="pt"/>