<?xml version="1.0" encoding="UTF-8"?>

<vehicleDefinitions xmlns="http://www.matsim.org/files/dtd" xmlns:xsi="http://www.w3.org/2001/XMLSchema-instance" xsi:schemaLocation="http://www.matsim.org/files/dtd http://www.matsim.org/files/dtd/vehicleDefinitions_v2.0.xsd">

	<vehicleType id="pt">

		<capacity seats="333" standingRoomInPersons="667">

		</capacity>
		<length meter="36.0"/>
		<width meter="1.0"/>
		<maximumVelocity meterPerSecond="25.0"/>
		<costInformation>

		</costInformation>
		<passengerCarEquivalents pce="1.0"/>
		<networkMode networkMode="car"/>
		<flowEfficiencyFactor factor="1.0"/>
	</vehicleType>

	<vehicle id="tr_1" type="pt"/>
	<vehicle id="tr_10" type="pt"/>
	<vehicle id="tr_100" type="pt"/>
	<vehicle id="tr_101" type="pt"/>
	<vehicle id="tr_102" type="pt"/>
	<vehicle id="tr_103" type="pt"/>
	<vehicle id="tr_104" type="pt"/>
	<vehicle id="tr_105" type="pt"/>
	<vehicle id="tr_106" type="pt"/>
	<vehicle id="tr_107" type="pt"/>
	<vehicle id="tr_108" type="pt"/>
	<vehicle id="tr_109" type="pt"/>
	<vehicle id="tr_11" type="pt"/>
	<vehicle id="tr_110" type="pt"/>
	<vehicle id="tr_111" type="pt"/>
	<vehicle id="tr_112" type="pt"/>
	<vehicle id="tr_113" type="pt"/>
	<vehicle id="tr_114" type="pt"/>
	<vehicle id="tr_115" type="pt"/>
	<vehicle id="tr_116" type="pt"/>
	<vehicle id="tr_117" type="pt"/>
	<vehicle id="tr_118" type="pt"/>
	<vehicle id="tr_119" type="pt"/>
	<vehicle id="tr_12" type="pt"/>
	<vehicle id="tr_120" type="pt"/>
	<vehicle id="tr_121" type="pt"/>
	<vehicle id="tr_122" type="pt"/>
	<vehicle id="tr_123" type="pt"/>
	<vehicle id="tr_124" type="pt"/>
	<vehicle id="tr_125" type="pt"/>
	<vehicle id="tr_126" type="pt"/>
	<vehicle id="tr_127" type="pt"/>
	<vehicle id="tr_128" type="pt"/>
	<vehicle id="tr_129" type="pt"/>
	<vehicle id="tr_13" type="pt"/>
	<vehicle id="tr_130" type="pt"/>
	<vehicle id="tr_131" type="pt"/>
	<vehicle id="tr_132" type="pt"/>
	<vehicle id="tr_133" type="pt"/>
	<vehicle id="tr_134" type="pt"/>
	<vehicle id="tr_135" type="pt"/>
	<vehicle id="tr_136" type="pt"/>
	<vehicle id="tr_137" type="pt"/>
	<vehicle id="tr_138" type="pt"/>
	<vehicle id="tr_139" type="pt"/>
	<vehicle id="tr_14" type="pt"/>
	<vehicle id="tr_140" type="pt"/>
	<vehicle id="tr_141" type="pt"/>
	<vehicle id="tr_142" type="pt"/>
	<vehicle id="tr_143" type="pt"/>
	<vehicle id="tr_144" type="pt"/>
	<vehicle id="tr_145" type="pt"/>
	<vehicle id="tr_146" type="pt"/>
	<vehicle id="tr_147" type="pt"/>
	<vehicle id="tr_148" type="pt"/>
	<vehicle id="tr_149" type="pt"/>
	<vehicle id="tr_15" type="pt"/>
	<vehicle id="tr_150" type="pt"/>
	<vehicle id="tr_151" type="pt"/>
	<vehicle id="tr_152" type="pt"/>
	<vehicle id="tr_153" type="pt"/>
	<vehicle id="tr_154" type="pt"/>
	<vehicle id="tr_155" type="pt"/>
	<vehicle id="tr_156" type="pt"/>
	<vehicle id="tr_157" type="pt"/>
	<vehicle id="tr_158" type="pt"/>
	<vehicle id="tr_159" type="pt"/>
	<vehicle id="tr_16" type="pt"/>
	<vehicle id="tr_160" type="pt"/>
	<vehicle id="tr_161" type="pt"/>
	<vehicle id="tr_162" type="pt"/>
	<vehicle id="tr_163" type="pt"/>
	<vehicle id="tr_164" type="pt"/>
	<vehicle id="tr_165" type="pt"/>
	<vehicle id="tr_166" type="pt"/>
	<vehicle id="tr_167" type="pt"/>
	<vehicle id="tr_168" type="pt"/>
	<vehicle id="tr_169" type="pt"/>
	<vehicle id="tr_17" type="pt"/>
	<vehicle id="tr_170" type="pt"/>
	<vehicle id="tr_171" type="pt"/>
	<vehicle id="tr_172" type="pt"/>
	<vehicle id="tr_173" type="pt"/>
	<vehicle id="tr_174" type="pt"/>
	<vehicle id="tr_175" type="pt"/>
	<vehicle id="tr_176" type="pt"/>
	<vehicle id="tr_177" type="pt"/>
	<vehicle id="tr_178" type="pt"/>
	<vehicle id="tr_179" type="pt"/>
	<vehicle id="tr_18" type="pt"/>
	<vehicle id="tr_180" type="pt"/>
	<vehicle id="tr_181" type="pt"/>
	<vehicle id="tr_182" type="pt"/>
	<vehicle id="tr_183" type="pt"/>
	<vehicle id="tr_184" type="pt"/>
	<vehicle id="tr_185" type="pt"/>
	<vehicle id="tr_186" type="pt"/>
	<vehicle id="tr_187" type="pt"/>
	<vehicle id="tr_188" type="pt"/>
	<vehicle id="tr_189" type="pt"/>
	<vehicle id="tr_19" type="pt"/>
	<vehicle id="tr_190" type="pt"/>
	<vehicle id="tr_191" type="pt"/>
	<vehicle id="tr_192" type="pt"/>
	<vehicle id="tr_193" type="pt"/>
	<vehicle id="tr_194" type="pt"/>
	<vehicle id="tr_195" type="pt"/>
	<vehicle id="tr_196" type="pt"/>
	<vehicle id="tr_197" type="pt"/>
	<vehicle id="tr_198" type="pt"/>
	<vehicle id="tr_199" type="pt"/>
	<vehicle id="tr_2" type="pt"/>
	<vehicle id="tr_20" type="pt"/>
	<vehicle id="tr_200" type="pt"/>
	<vehicle id="tr_201" type="pt"/>
	<vehicle id="tr_202" type="pt"/>
	<vehicle id="tr_203" type="pt"/>
	<vehicle id="tr_204" type="pt"/>
	<vehicle id="tr_205" type="pt"/>
	<vehicle id="tr_206" type="pt"/>
	<vehicle id="tr_207" type="pt"/>
	<vehicle id="tr_208" type="pt"/>
	<vehicle id="tr_209" type="pt"/>
	<vehicle id="tr_21" type="pt"/>
	<vehicle id="tr_210" type="pt"/>
	<vehicle id="tr_211" type="pt"/>
	<vehicle id="tr_212" type="pt"/>
	<vehicle id="tr_213" type="pt"/>
	<vehicle id="tr_214" type="pt"/>
	<vehicle id="tr_215" type="pt"/>
	<vehicle id="tr_216" type="pt"/>
	<vehicle id="tr_217" type="pt"/>
	<vehicle id="tr_218" type="pt"/>
	<vehicle id="tr_219" type="pt"/>
	<vehicle id="tr_22" type="pt"/>
	<vehicle id="tr_220" type="pt"/>
	<vehicle id="tr_221" type="pt"/>
	<vehicle id="tr_222" type="pt"/>
	<vehicle id="tr_223" type="pt"/>
	<vehicle id="tr_224" type="pt"/>
	<vehicle id="tr_225" type="pt"/>
	<vehicle id="tr_226" type="pt"/>
	<vehicle id="tr_227" type="pt"/>
	<vehicle id="tr_228" type="pt"/>
	<vehicle id="tr_229" type="pt"/>
	<vehicle id="tr_23" type="pt"/>
	<vehicle id="tr_230" type="pt"/>
	<vehicle id="tr_231" type="pt"/>
	<vehicle id="tr_232" type="pt"/>
	<vehicle id="tr_233" type="pt"/>
	<vehicle id="tr_234" type="pt"/>
	<vehicle id="tr_235" type="pt"/>
	<vehicle id="tr_236" type="pt"/>
	<vehicle id="tr_237" type="pt"/>
	<vehicle id="tr_238" type="pt"/>
	<vehicle id="tr_239" type="pt"/>
	<vehicle id="tr_24" type="pt"/>
	<vehicle id="tr_240" type="pt"/>
	<vehicle id="tr_241" type="pt"/>
	<vehicle id="tr_242" type="pt"/>
	<vehicle id="tr_243" type="pt"/>
	<vehicle id="tr_244" type="pt"/>
	<vehicle id="tr_245" type="pt"/>
	<vehicle id="tr_246" type="pt"/>
	<vehicle id="tr_247" type="pt"/>
	<vehicle id="tr_248" type="pt"/>
	<vehicle id="tr_249" type="pt"/>
	<vehicle id="tr_25" type="pt"/>
	<vehicle id="tr_250" type="pt"/>
	<vehicle id="tr_251" type="pt"/>
	<vehicle id="tr_252" type="pt"/>
	<vehicle id="tr_253" type="pt"/>
	<vehicle id="tr_254" type="pt"/>
	<vehicle id="tr_255" type="pt"/>
	<vehicle id="tr_256" type="pt"/>
	<vehicle id="tr_257" type="pt"/>
	<vehicle id="tr_258" type="pt"/>
	<vehicle id="tr_259" type="pt"/>
	<vehicle id="tr_26" type="pt"/>
	<vehicle id="tr_260" type="pt"/>
	<vehicle id="tr_261" type="pt"/>
	<vehicle id="tr_262" type="pt"/>
	<vehicle id="tr_263" type="pt"/>
	<vehicle id="tr_264" type="pt"/>
	<vehicle id="tr_265" type="pt"/>
	<vehicle id="tr_266" type="pt"/>
	<vehicle id="tr_267" type="pt"/>
	<vehicle id="tr_268" type="pt"/>
	<vehicle id="tr_269" type="pt"/>
	<vehicle id="tr_27" type="pt"/>
	<vehicle id="tr_270" type="pt"/>
	<vehicle id="tr_271" type="pt"/>
	<vehicle id="tr_272" type="pt"/>
	<vehicle id="tr_273" type="pt"/>
	<vehicle id="tr_274" type="pt"/>
	<vehicle id="tr_275" type="pt"/>
	<vehicle id="tr_276" type="pt"/>
	<vehicle id="tr_277" type="pt"/>
	<vehicle id="tr_278" type="pt"/>
	<vehicle id="tr_279" type="pt"/>
	<vehicle id="tr_28" type="pt"/>
	<vehicle id="tr_280" type="pt"/>
	<vehicle id="tr_281" type="pt"/>
	<vehicle id="tr_282" type="pt"/>
	<vehicle id="tr_283" type="pt"/>
	<vehicle id="tr_284" type="pt"/>
	<vehicle id="tr_285" type="pt"/>
	<vehicle id="tr_286" type="pt"/>
	<vehicle id="tr_287" type="pt"/>
	<vehicle id="tr_288" type="pt"/>
	<vehicle id="tr_289" type="pt"/>
	<vehicle id="tr_29" type="pt"/>
	<vehicle id="tr_290" type="pt"/>
	<vehicle id="tr_291" type="pt"/>
	<vehicle id="tr_292" type="pt"/>
	<vehicle id="tr_293" type="pt"/>
	<vehicle id="tr_294" type="pt"/>
	<vehicle id="tr_295" type="pt"/>
	<vehicle id="tr_296" type="pt"/>
	<vehicle id="tr_297" type="pt"/>
	<vehicle id="tr_298" type="pt"/>
	<vehicle id="tr_299" type="pt"/>
	<vehicle id="tr_3" type="pt"/>
	<vehicle id="tr_30" type="pt"/>
	<vehicle id="tr_300" type="pt"/>
	<vehicle id="tr_301" type="pt"/>
	<vehicle id="tr_302" type="pt"/>
	<vehicle id="tr_303" type="pt"/>
	<vehicle id="tr_304" type="pt"/>
	<vehicle id="tr_305" type="pt"/>
	<vehicle id="tr_306" type="pt"/>
	<vehicle id="tr_307" type="pt"/>
	<vehicle id="tr_308" type="pt"/>
	<vehicle id="tr_309" type="pt"/>
	<vehicle id="tr_31" type="pt"/>
	<vehicle id="tr_310" type="pt"/>
	<vehicle id="tr_311" type="pt"/>
	<vehicle id="tr_312" type="pt"/>
	<vehicle id="tr_313" type="pt"/>
	<vehicle id="tr_314" type="pt"/>
	<vehicle id="tr_315" type="pt"/>
	<vehicle id="tr_316" type="pt"/>
	<vehicle id="tr_317" type="pt"/>
	<vehicle id="tr_318" type="pt"/>
	<vehicle id="tr_319" type="pt"/>
	<vehicle id="tr_32" type="pt"/>
	<vehicle id="tr_320" type="pt"/>
	<vehicle id="tr_321" type="pt"/>
	<vehicle id="tr_322" type="pt"/>
	<vehicle id="tr_323" type="pt"/>
	<vehicle id="tr_324" type="pt"/>
	<vehicle id="tr_325" type="pt"/>
	<vehicle id="tr_326" type="pt"/>
	<vehicle id="tr_327" type="pt"/>
	<vehicle id="tr_328" type="pt"/>
	<vehicle id="tr_329" type="pt"/>
	<vehicle id="tr_33" type="pt"/>
	<vehicle id="tr_330" type="pt"/>
	<vehicle id="tr_331" type="pt"/>
	<vehicle id="tr_332" type="pt"/>
	<vehicle id="tr_333" type="pt"/>
	<vehicle id="tr_334" type="pt"/>
	<vehicle id="tr_335" type="pt"/>
	<vehicle id="tr_336" type="pt"/>
	<vehicle id="tr_337" type="pt"/>
	<vehicle id="tr_338" type="pt"/>
	<vehicle id="tr_339" type="pt"/>
	<vehicle id="tr_34" type="pt"/>
	<vehicle id="tr_340" type="pt"/>
	<vehicle id="tr_341" type="pt"/>
	<vehicle id="tr_342" type="pt"/>
	<vehicle id="tr_343" type="pt"/>
	<vehicle id="tr_344" type="pt"/>
	<vehicle id="tr_345" type="pt"/>
	<vehicle id="tr_346" type="pt"/>
	<vehicle id="tr_347" type="pt"/>
	<vehicle id="tr_348" type="pt"/>
	<vehicle id="tr_349" type="pt"/>
	<vehicle id="tr_35" type="pt"/>
	<vehicle id="tr_350" type="pt"/>
	<vehicle id="tr_351" type="pt"/>
	<vehicle id="tr_352" type="pt"/>
	<vehicle id="tr_353" type="pt"/>
	<vehicle id="tr_354" type="pt"/>
	<vehicle id="tr_355" type="pt"/>
	<vehicle id="tr_356" type="pt"/>
	<vehicle id="tr_357" type="pt"/>
	<vehicle id="tr_358" type="pt"/>
	<vehicle id="tr_359" type="pt"/>
	<vehicle id="tr_36" type="pt"/>
	<vehicle id="tr_360" type="pt"/>
	<vehicle id="tr_361" type="pt"/>
	<vehicle id="tr_362" type="pt"/>
	<vehicle id="tr_363" type="pt"/>
	<vehicle id="tr_364" type="pt"/>
	<vehicle id="tr_365" type="pt"/>
	<vehicle id="tr_366" type="pt"/>
	<vehicle id="tr_367" type="pt"/>
	<vehicle id="tr_368" type="pt"/>
	<vehicle id="tr_369" type="pt"/>
	<vehicle id="tr_37" type="pt"/>
	<vehicle id="tr_370" type="pt"/>
	<vehicle id="tr_371" type="pt"/>
	<vehicle id="tr_372" type="pt"/>
	<vehicle id="tr_373" type="pt"/>
	<vehicle id="tr_374" type="pt"/>
	<vehicle id="tr_375" type="pt"/>
	<vehicle id="tr_376" type="pt"/>
	<vehicle id="tr_377" type="pt"/>
	<vehicle id="tr_378" type="pt"/>
	<vehicle id="tr_379" type="pt"/>
	<vehicle id="tr_38" type="pt"/>
	<vehicle id="tr_380" type="pt"/>
	<vehicle id="tr_381" type="pt"/>
	<vehicle id="tr_382" type="pt"/>
	<vehicle id="tr_383" type="pt"/>
	<vehicle id="tr_384" type="pt"/>
	<vehicle id="tr_385" type="pt"/>
	<vehicle id="tr_386" type="pt"/>
	<vehicle id="tr_387" type="pt"/>
	<vehicle id="tr_388" type="pt"/>
	<vehicle id="tr_389" type="pt"/>
	<vehicle id="tr_39" type="pt"/>
	<vehicle id="tr_390" type="pt"/>
	<vehicle id="tr_391" type="pt"/>
	<vehicle id="tr_392" type="pt"/>
	<vehicle id="tr_393" type="pt"/>
	<vehicle id="tr_394" type="pt"/>
	<vehicle id="tr_395" type="pt"/>
	<vehicle id="tr_396" type="pt"/>
	<vehicle id="tr_397" type="pt"/>
	<vehicle id="tr_398" type="pt"/>
	<vehicle id="tr_399" type="pt"/>
	<vehicle id="tr_4" type="pt"/>
	<vehicle id="tr_40" type="pt"/>
	<vehicle id="tr_400" type="pt"/>
	<vehicle id="tr_41" type="pt"/>
	<vehicle id="tr_42" type="pt"/>
	<vehicle id="tr_43" type="pt"/>
	<vehicle id="tr_44" type="pt"/>
	<vehicle id="tr_45" type="pt"/>
	<vehicle id="tr_46" type="pt"/>
	<vehicle id="tr_47" type="pt"/>
	<vehicle id="tr_48" type="pt"/>
	<vehicle id="tr_49" type="pt"/>
	<vehicle id="tr_5" type="pt"/>
	<vehicle id="tr_50" type="pt"/>
	<vehicle id="tr_51" type="pt"/>
	<vehicle id="tr_52" type="pt"/>
	<vehicle id="tr_53" type="pt"/>
	<vehicle id="tr_54" type="pt"/>
	<vehicle id="tr_55" type="pt"/>
	<vehicle id="tr_56" type="pt"/>
	<vehicle id="tr_57" type="pt"/>
	<vehicle id="tr_58" type="pt"/>
	<vehicle id="tr_59" type="pt"/>
	<vehicle id="tr_6" type="pt"/>
	<vehicle id="tr_60" type="pt"/>
	<vehicle id="tr_61" type="pt"/>
	<vehicle id="tr_62" type="pt"/>
	<vehicle id="tr_63" type="pt"/>
	<vehicle id="tr_64" type="pt"/>
	<vehicle id="tr_65" type="pt"/>
	<vehicle id="tr_66" type="pt"/>
	<vehicle id="tr_67" type="pt"/>
	<vehicle id="tr_68" type="pt"/>
	<vehicle id="tr_69" type="pt"/>
	<vehicle id="tr_7" type="pt"/>
	<vehicle id="tr_70" type="pt"/>
	<vehicle id="tr_71" type="pt"/>
	<vehicle id="tr_72" type="pt"/>
	<vehicle id="tr_73" type="pt"/>
	<vehicle id="tr_74" type="pt"/>
	<vehicle id="tr_75" type="pt"/>
	<vehicle id="tr_76" type="pt"/>
	<vehicle id="tr_77" type="pt"/>
	<vehicle id="tr_78" type="pt"/>
	<vehicle id="tr_79" type="pt"/>
	<vehicle id="tr_8" type="pt"/>
	<vehicle id="tr_80" type="pt"/>
	<vehicle id="tr_81" type="pt"/>
	<vehicle id="tr_82" type="pt"/>
	<vehicle id="tr_83" type="pt"/>
	<vehicle id="tr_84" type="pt"/>
	<vehicle id="tr_85" type="pt"/>
	<vehicle id="tr_86" type="pt"/>
	<vehicle id="tr_87" type="pt"/>
	<vehicle id="tr_88" type="pt"/>
	<vehicle id="tr_89" type="pt"/>
	<vehicle id="tr_9" type="pt"/>
	<vehicle id="tr_90" type="pt"/>
	<vehicle id="tr_91" type="pt"/>
	<vehicle id="tr_92" type="pt"/>
	<vehicle id="tr_93" type="pt"/>
	<vehicle id="tr_94" type="pt"/>
	<vehicle id="tr_95" type="pt"/>
	<vehicle id="tr_96" type="pt"/>
	<vehicle id="tr_97" type="pt"/>
	<vehicle id="tr_98" type="pt"/>
	<vehicle id="tr_99" type="pt"/>
		

</vehicleDefinitions>