<?xml version="1.0" encoding="UTF-8"?>
<!DOCTYPE network SYSTEM "http://www.matsim.org/files/dtd/network_v2.dtd">
<network>

<!-- ====================================================================== -->

	<nodes>
		<node id="100000" x="0.0" y="0.0" >
		</node>
		<node id="100001" x="0.0" y="43.47826086956522" >
		</node>
		<node id="100002" x="0.0" y="86.95652173913044" >
		</node>
		<node id="100003" x="0.0" y="130.43478260869566" >
		</node>
		<node id="100004" x="0.0" y="173.91304347826087" >
		</node>
		<node id="100005" x="0.0" y="217.3913043478261" >
		</node>
		<node id="100006" x="0.0" y="260.8695652173913" >
		</node>
		<node id="100007" x="0.0" y="304.3478260869565" >
		</node>
		<node id="100008" x="0.0" y="347.82608695652175" >
		</node>
		<node id="100009" x="0.0" y="391.304347826087" >
		</node>
		<node id="100010" x="0.0" y="434.7826086956522" >
		</node>
		<node id="100011" x="0.0" y="478.2608695652174" >
		</node>
		<node id="100012" x="0.0" y="521.7391304347826" >
		</node>
		<node id="100013" x="0.0" y="565.2173913043479" >
		</node>
		<node id="100014" x="0.0" y="608.695652173913" >
		</node>
		<node id="100015" x="0.0" y="652.1739130434783" >
		</node>
		<node id="100016" x="0.0" y="695.6521739130435" >
		</node>
		<node id="100017" x="0.0" y="739.1304347826087" >
		</node>
		<node id="100018" x="0.0" y="782.608695652174" >
		</node>
		<node id="100019" x="0.0" y="826.0869565217391" >
		</node>
		<node id="100020" x="0.0" y="869.5652173913044" >
		</node>
		<node id="100021" x="0.0" y="913.0434782608696" >
		</node>
		<node id="100022" x="0.0" y="956.5217391304348" >
		</node>
		<node id="100023" x="0.0" y="1000.0" >
		</node>
		<node id="100100" x="43.47826086956522" y="0.0" >
		</node>
		<node id="100101" x="43.47826086956522" y="43.47826086956522" >
		</node>
		<node id="100102" x="43.47826086956522" y="86.95652173913044" >
		</node>
		<node id="100103" x="43.47826086956522" y="130.43478260869566" >
		</node>
		<node id="100104" x="43.47826086956522" y="173.91304347826087" >
		</node>
		<node id="100105" x="43.47826086956522" y="217.3913043478261" >
		</node>
		<node id="100106" x="43.47826086956522" y="260.8695652173913" >
		</node>
		<node id="100107" x="43.47826086956522" y="304.3478260869565" >
		</node>
		<node id="100108" x="43.47826086956522" y="347.82608695652175" >
		</node>
		<node id="100109" x="43.47826086956522" y="391.304347826087" >
		</node>
		<node id="100110" x="43.47826086956522" y="434.7826086956522" >
		</node>
		<node id="100111" x="43.47826086956522" y="478.2608695652174" >
		</node>
		<node id="100112" x="43.47826086956522" y="521.7391304347826" >
		</node>
		<node id="100113" x="43.47826086956522" y="565.2173913043479" >
		</node>
		<node id="100114" x="43.47826086956522" y="608.695652173913" >
		</node>
		<node id="100115" x="43.47826086956522" y="652.1739130434783" >
		</node>
		<node id="100116" x="43.47826086956522" y="695.6521739130435" >
		</node>
		<node id="100117" x="43.47826086956522" y="739.1304347826087" >
		</node>
		<node id="100118" x="43.47826086956522" y="782.608695652174" >
		</node>
		<node id="100119" x="43.47826086956522" y="826.0869565217391" >
		</node>
		<node id="100120" x="43.47826086956522" y="869.5652173913044" >
		</node>
		<node id="100121" x="43.47826086956522" y="913.0434782608696" >
		</node>
		<node id="100122" x="43.47826086956522" y="956.5217391304348" >
		</node>
		<node id="100123" x="43.47826086956522" y="1000.0" >
		</node>
		<node id="100200" x="86.95652173913044" y="0.0" >
		</node>
		<node id="100201" x="86.95652173913044" y="43.47826086956522" >
		</node>
		<node id="100202" x="86.95652173913044" y="86.95652173913044" >
		</node>
		<node id="100203" x="86.95652173913044" y="130.43478260869566" >
		</node>
		<node id="100204" x="86.95652173913044" y="173.91304347826087" >
		</node>
		<node id="100205" x="86.95652173913044" y="217.3913043478261" >
		</node>
		<node id="100206" x="86.95652173913044" y="260.8695652173913" >
		</node>
		<node id="100207" x="86.95652173913044" y="304.3478260869565" >
		</node>
		<node id="100208" x="86.95652173913044" y="347.82608695652175" >
		</node>
		<node id="100209" x="86.95652173913044" y="391.304347826087" >
		</node>
		<node id="100210" x="86.95652173913044" y="434.7826086956522" >
		</node>
		<node id="100211" x="86.95652173913044" y="478.2608695652174" >
		</node>
		<node id="100212" x="86.95652173913044" y="521.7391304347826" >
		</node>
		<node id="100213" x="86.95652173913044" y="565.2173913043479" >
		</node>
		<node id="100214" x="86.95652173913044" y="608.695652173913" >
		</node>
		<node id="100215" x="86.95652173913044" y="652.1739130434783" >
		</node>
		<node id="100216" x="86.95652173913044" y="695.6521739130435" >
		</node>
		<node id="100217" x="86.95652173913044" y="739.1304347826087" >
		</node>
		<node id="100218" x="86.95652173913044" y="782.608695652174" >
		</node>
		<node id="100219" x="86.95652173913044" y="826.0869565217391" >
		</node>
		<node id="100220" x="86.95652173913044" y="869.5652173913044" >
		</node>
		<node id="100221" x="86.95652173913044" y="913.0434782608696" >
		</node>
		<node id="100222" x="86.95652173913044" y="956.5217391304348" >
		</node>
		<node id="100223" x="86.95652173913044" y="1000.0" >
		</node>
		<node id="100300" x="130.43478260869566" y="0.0" >
		</node>
		<node id="100301" x="130.43478260869566" y="43.47826086956522" >
		</node>
		<node id="100302" x="130.43478260869566" y="86.95652173913044" >
		</node>
		<node id="100303" x="130.43478260869566" y="130.43478260869566" >
		</node>
		<node id="100304" x="130.43478260869566" y="173.91304347826087" >
		</node>
		<node id="100305" x="130.43478260869566" y="217.3913043478261" >
		</node>
		<node id="100306" x="130.43478260869566" y="260.8695652173913" >
		</node>
		<node id="100307" x="130.43478260869566" y="304.3478260869565" >
		</node>
		<node id="100308" x="130.43478260869566" y="347.82608695652175" >
		</node>
		<node id="100309" x="130.43478260869566" y="391.304347826087" >
		</node>
		<node id="100310" x="130.43478260869566" y="434.7826086956522" >
		</node>
		<node id="100311" x="130.43478260869566" y="478.2608695652174" >
		</node>
		<node id="100312" x="130.43478260869566" y="521.7391304347826" >
		</node>
		<node id="100313" x="130.43478260869566" y="565.2173913043479" >
		</node>
		<node id="100314" x="130.43478260869566" y="608.695652173913" >
		</node>
		<node id="100315" x="130.43478260869566" y="652.1739130434783" >
		</node>
		<node id="100316" x="130.43478260869566" y="695.6521739130435" >
		</node>
		<node id="100317" x="130.43478260869566" y="739.1304347826087" >
		</node>
		<node id="100318" x="130.43478260869566" y="782.608695652174" >
		</node>
		<node id="100319" x="130.43478260869566" y="826.0869565217391" >
		</node>
		<node id="100320" x="130.43478260869566" y="869.5652173913044" >
		</node>
		<node id="100321" x="130.43478260869566" y="913.0434782608696" >
		</node>
		<node id="100322" x="130.43478260869566" y="956.5217391304348" >
		</node>
		<node id="100323" x="130.43478260869566" y="1000.0" >
		</node>
		<node id="100400" x="173.91304347826087" y="0.0" >
		</node>
		<node id="100401" x="173.91304347826087" y="43.47826086956522" >
		</node>
		<node id="100402" x="173.91304347826087" y="86.95652173913044" >
		</node>
		<node id="100403" x="173.91304347826087" y="130.43478260869566" >
		</node>
		<node id="100404" x="173.91304347826087" y="173.91304347826087" >
		</node>
		<node id="100405" x="173.91304347826087" y="217.3913043478261" >
		</node>
		<node id="100406" x="173.91304347826087" y="260.8695652173913" >
		</node>
		<node id="100407" x="173.91304347826087" y="304.3478260869565" >
		</node>
		<node id="100408" x="173.91304347826087" y="347.82608695652175" >
		</node>
		<node id="100409" x="173.91304347826087" y="391.304347826087" >
		</node>
		<node id="100410" x="173.91304347826087" y="434.7826086956522" >
		</node>
		<node id="100411" x="173.91304347826087" y="478.2608695652174" >
		</node>
		<node id="100412" x="173.91304347826087" y="521.7391304347826" >
		</node>
		<node id="100413" x="173.91304347826087" y="565.2173913043479" >
		</node>
		<node id="100414" x="173.91304347826087" y="608.695652173913" >
		</node>
		<node id="100415" x="173.91304347826087" y="652.1739130434783" >
		</node>
		<node id="100416" x="173.91304347826087" y="695.6521739130435" >
		</node>
		<node id="100417" x="173.91304347826087" y="739.1304347826087" >
		</node>
		<node id="100418" x="173.91304347826087" y="782.608695652174" >
		</node>
		<node id="100419" x="173.91304347826087" y="826.0869565217391" >
		</node>
		<node id="100420" x="173.91304347826087" y="869.5652173913044" >
		</node>
		<node id="100421" x="173.91304347826087" y="913.0434782608696" >
		</node>
		<node id="100422" x="173.91304347826087" y="956.5217391304348" >
		</node>
		<node id="100423" x="173.91304347826087" y="1000.0" >
		</node>
		<node id="100500" x="217.3913043478261" y="0.0" >
		</node>
		<node id="100501" x="217.3913043478261" y="43.47826086956522" >
		</node>
		<node id="100502" x="217.3913043478261" y="86.95652173913044" >
		</node>
		<node id="100503" x="217.3913043478261" y="130.43478260869566" >
		</node>
		<node id="100504" x="217.3913043478261" y="173.91304347826087" >
		</node>
		<node id="100505" x="217.3913043478261" y="217.3913043478261" >
		</node>
		<node id="100506" x="217.3913043478261" y="260.8695652173913" >
		</node>
		<node id="100507" x="217.3913043478261" y="304.3478260869565" >
		</node>
		<node id="100508" x="217.3913043478261" y="347.82608695652175" >
		</node>
		<node id="100509" x="217.3913043478261" y="391.304347826087" >
		</node>
		<node id="100510" x="217.3913043478261" y="434.7826086956522" >
		</node>
		<node id="100511" x="217.3913043478261" y="478.2608695652174" >
		</node>
		<node id="100512" x="217.3913043478261" y="521.7391304347826" >
		</node>
		<node id="100513" x="217.3913043478261" y="565.2173913043479" >
		</node>
		<node id="100514" x="217.3913043478261" y="608.695652173913" >
		</node>
		<node id="100515" x="217.3913043478261" y="652.1739130434783" >
		</node>
		<node id="100516" x="217.3913043478261" y="695.6521739130435" >
		</node>
		<node id="100517" x="217.3913043478261" y="739.1304347826087" >
		</node>
		<node id="100518" x="217.3913043478261" y="782.608695652174" >
		</node>
		<node id="100519" x="217.3913043478261" y="826.0869565217391" >
		</node>
		<node id="100520" x="217.3913043478261" y="869.5652173913044" >
		</node>
		<node id="100521" x="217.3913043478261" y="913.0434782608696" >
		</node>
		<node id="100522" x="217.3913043478261" y="956.5217391304348" >
		</node>
		<node id="100523" x="217.3913043478261" y="1000.0" >
		</node>
		<node id="100600" x="260.8695652173913" y="0.0" >
		</node>
		<node id="100601" x="260.8695652173913" y="43.47826086956522" >
		</node>
		<node id="100602" x="260.8695652173913" y="86.95652173913044" >
		</node>
		<node id="100603" x="260.8695652173913" y="130.43478260869566" >
		</node>
		<node id="100604" x="260.8695652173913" y="173.91304347826087" >
		</node>
		<node id="100605" x="260.8695652173913" y="217.3913043478261" >
		</node>
		<node id="100606" x="260.8695652173913" y="260.8695652173913" >
		</node>
		<node id="100607" x="260.8695652173913" y="304.3478260869565" >
		</node>
		<node id="100608" x="260.8695652173913" y="347.82608695652175" >
		</node>
		<node id="100609" x="260.8695652173913" y="391.304347826087" >
		</node>
		<node id="100610" x="260.8695652173913" y="434.7826086956522" >
		</node>
		<node id="100611" x="260.8695652173913" y="478.2608695652174" >
		</node>
		<node id="100612" x="260.8695652173913" y="521.7391304347826" >
		</node>
		<node id="100613" x="260.8695652173913" y="565.2173913043479" >
		</node>
		<node id="100614" x="260.8695652173913" y="608.695652173913" >
		</node>
		<node id="100615" x="260.8695652173913" y="652.1739130434783" >
		</node>
		<node id="100616" x="260.8695652173913" y="695.6521739130435" >
		</node>
		<node id="100617" x="260.8695652173913" y="739.1304347826087" >
		</node>
		<node id="100618" x="260.8695652173913" y="782.608695652174" >
		</node>
		<node id="100619" x="260.8695652173913" y="826.0869565217391" >
		</node>
		<node id="100620" x="260.8695652173913" y="869.5652173913044" >
		</node>
		<node id="100621" x="260.8695652173913" y="913.0434782608696" >
		</node>
		<node id="100622" x="260.8695652173913" y="956.5217391304348" >
		</node>
		<node id="100623" x="260.8695652173913" y="1000.0" >
		</node>
		<node id="100700" x="304.3478260869565" y="0.0" >
		</node>
		<node id="100701" x="304.3478260869565" y="43.47826086956522" >
		</node>
		<node id="100702" x="304.3478260869565" y="86.95652173913044" >
		</node>
		<node id="100703" x="304.3478260869565" y="130.43478260869566" >
		</node>
		<node id="100704" x="304.3478260869565" y="173.91304347826087" >
		</node>
		<node id="100705" x="304.3478260869565" y="217.3913043478261" >
		</node>
		<node id="100706" x="304.3478260869565" y="260.8695652173913" >
		</node>
		<node id="100707" x="304.3478260869565" y="304.3478260869565" >
		</node>
		<node id="100708" x="304.3478260869565" y="347.82608695652175" >
		</node>
		<node id="100709" x="304.3478260869565" y="391.304347826087" >
		</node>
		<node id="100710" x="304.3478260869565" y="434.7826086956522" >
		</node>
		<node id="100711" x="304.3478260869565" y="478.2608695652174" >
		</node>
		<node id="100712" x="304.3478260869565" y="521.7391304347826" >
		</node>
		<node id="100713" x="304.3478260869565" y="565.2173913043479" >
		</node>
		<node id="100714" x="304.3478260869565" y="608.695652173913" >
		</node>
		<node id="100715" x="304.3478260869565" y="652.1739130434783" >
		</node>
		<node id="100716" x="304.3478260869565" y="695.6521739130435" >
		</node>
		<node id="100717" x="304.3478260869565" y="739.1304347826087" >
		</node>
		<node id="100718" x="304.3478260869565" y="782.608695652174" >
		</node>
		<node id="100719" x="304.3478260869565" y="826.0869565217391" >
		</node>
		<node id="100720" x="304.3478260869565" y="869.5652173913044" >
		</node>
		<node id="100721" x="304.3478260869565" y="913.0434782608696" >
		</node>
		<node id="100722" x="304.3478260869565" y="956.5217391304348" >
		</node>
		<node id="100723" x="304.3478260869565" y="1000.0" >
		</node>
		<node id="100800" x="347.82608695652175" y="0.0" >
		</node>
		<node id="100801" x="347.82608695652175" y="43.47826086956522" >
		</node>
		<node id="100802" x="347.82608695652175" y="86.95652173913044" >
		</node>
		<node id="100803" x="347.82608695652175" y="130.43478260869566" >
		</node>
		<node id="100804" x="347.82608695652175" y="173.91304347826087" >
		</node>
		<node id="100805" x="347.82608695652175" y="217.3913043478261" >
		</node>
		<node id="100806" x="347.82608695652175" y="260.8695652173913" >
		</node>
		<node id="100807" x="347.82608695652175" y="304.3478260869565" >
		</node>
		<node id="100808" x="347.82608695652175" y="347.82608695652175" >
		</node>
		<node id="100809" x="347.82608695652175" y="391.304347826087" >
		</node>
		<node id="100810" x="347.82608695652175" y="434.7826086956522" >
		</node>
		<node id="100811" x="347.82608695652175" y="478.2608695652174" >
		</node>
		<node id="100812" x="347.82608695652175" y="521.7391304347826" >
		</node>
		<node id="100813" x="347.82608695652175" y="565.2173913043479" >
		</node>
		<node id="100814" x="347.82608695652175" y="608.695652173913" >
		</node>
		<node id="100815" x="347.82608695652175" y="652.1739130434783" >
		</node>
		<node id="100816" x="347.82608695652175" y="695.6521739130435" >
		</node>
		<node id="100817" x="347.82608695652175" y="739.1304347826087" >
		</node>
		<node id="100818" x="347.82608695652175" y="782.608695652174" >
		</node>
		<node id="100819" x="347.82608695652175" y="826.0869565217391" >
		</node>
		<node id="100820" x="347.82608695652175" y="869.5652173913044" >
		</node>
		<node id="100821" x="347.82608695652175" y="913.0434782608696" >
		</node>
		<node id="100822" x="347.82608695652175" y="956.5217391304348" >
		</node>
		<node id="100823" x="347.82608695652175" y="1000.0" >
		</node>
		<node id="100900" x="391.304347826087" y="0.0" >
		</node>
		<node id="100901" x="391.304347826087" y="43.47826086956522" >
		</node>
		<node id="100902" x="391.304347826087" y="86.95652173913044" >
		</node>
		<node id="100903" x="391.304347826087" y="130.43478260869566" >
		</node>
		<node id="100904" x="391.304347826087" y="173.91304347826087" >
		</node>
		<node id="100905" x="391.304347826087" y="217.3913043478261" >
		</node>
		<node id="100906" x="391.304347826087" y="260.8695652173913" >
		</node>
		<node id="100907" x="391.304347826087" y="304.3478260869565" >
		</node>
		<node id="100908" x="391.304347826087" y="347.82608695652175" >
		</node>
		<node id="100909" x="391.304347826087" y="391.304347826087" >
		</node>
		<node id="100910" x="391.304347826087" y="434.7826086956522" >
		</node>
		<node id="100911" x="391.304347826087" y="478.2608695652174" >
		</node>
		<node id="100912" x="391.304347826087" y="521.7391304347826" >
		</node>
		<node id="100913" x="391.304347826087" y="565.2173913043479" >
		</node>
		<node id="100914" x="391.304347826087" y="608.695652173913" >
		</node>
		<node id="100915" x="391.304347826087" y="652.1739130434783" >
		</node>
		<node id="100916" x="391.304347826087" y="695.6521739130435" >
		</node>
		<node id="100917" x="391.304347826087" y="739.1304347826087" >
		</node>
		<node id="100918" x="391.304347826087" y="782.608695652174" >
		</node>
		<node id="100919" x="391.304347826087" y="826.0869565217391" >
		</node>
		<node id="100920" x="391.304347826087" y="869.5652173913044" >
		</node>
		<node id="100921" x="391.304347826087" y="913.0434782608696" >
		</node>
		<node id="100922" x="391.304347826087" y="956.5217391304348" >
		</node>
		<node id="100923" x="391.304347826087" y="1000.0" >
		</node>
		<node id="101000" x="434.7826086956522" y="0.0" >
		</node>
		<node id="101001" x="434.7826086956522" y="43.47826086956522" >
		</node>
		<node id="101002" x="434.7826086956522" y="86.95652173913044" >
		</node>
		<node id="101003" x="434.7826086956522" y="130.43478260869566" >
		</node>
		<node id="101004" x="434.7826086956522" y="173.91304347826087" >
		</node>
		<node id="101005" x="434.7826086956522" y="217.3913043478261" >
		</node>
		<node id="101006" x="434.7826086956522" y="260.8695652173913" >
		</node>
		<node id="101007" x="434.7826086956522" y="304.3478260869565" >
		</node>
		<node id="101008" x="434.7826086956522" y="347.82608695652175" >
		</node>
		<node id="101009" x="434.7826086956522" y="391.304347826087" >
		</node>
		<node id="101010" x="434.7826086956522" y="434.7826086956522" >
		</node>
		<node id="101011" x="434.7826086956522" y="478.2608695652174" >
		</node>
		<node id="101012" x="434.7826086956522" y="521.7391304347826" >
		</node>
		<node id="101013" x="434.7826086956522" y="565.2173913043479" >
		</node>
		<node id="101014" x="434.7826086956522" y="608.695652173913" >
		</node>
		<node id="101015" x="434.7826086956522" y="652.1739130434783" >
		</node>
		<node id="101016" x="434.7826086956522" y="695.6521739130435" >
		</node>
		<node id="101017" x="434.7826086956522" y="739.1304347826087" >
		</node>
		<node id="101018" x="434.7826086956522" y="782.608695652174" >
		</node>
		<node id="101019" x="434.7826086956522" y="826.0869565217391" >
		</node>
		<node id="101020" x="434.7826086956522" y="869.5652173913044" >
		</node>
		<node id="101021" x="434.7826086956522" y="913.0434782608696" >
		</node>
		<node id="101022" x="434.7826086956522" y="956.5217391304348" >
		</node>
		<node id="101023" x="434.7826086956522" y="1000.0" >
		</node>
		<node id="101100" x="478.2608695652174" y="0.0" >
		</node>
		<node id="101101" x="478.2608695652174" y="43.47826086956522" >
		</node>
		<node id="101102" x="478.2608695652174" y="86.95652173913044" >
		</node>
		<node id="101103" x="478.2608695652174" y="130.43478260869566" >
		</node>
		<node id="101104" x="478.2608695652174" y="173.91304347826087" >
		</node>
		<node id="101105" x="478.2608695652174" y="217.3913043478261" >
		</node>
		<node id="101106" x="478.2608695652174" y="260.8695652173913" >
		</node>
		<node id="101107" x="478.2608695652174" y="304.3478260869565" >
		</node>
		<node id="101108" x="478.2608695652174" y="347.82608695652175" >
		</node>
		<node id="101109" x="478.2608695652174" y="391.304347826087" >
		</node>
		<node id="101110" x="478.2608695652174" y="434.7826086956522" >
		</node>
		<node id="101111" x="478.2608695652174" y="478.2608695652174" >
		</node>
		<node id="101112" x="478.2608695652174" y="521.7391304347826" >
		</node>
		<node id="101113" x="478.2608695652174" y="565.2173913043479" >
		</node>
		<node id="101114" x="478.2608695652174" y="608.695652173913" >
		</node>
		<node id="101115" x="478.2608695652174" y="652.1739130434783" >
		</node>
		<node id="101116" x="478.2608695652174" y="695.6521739130435" >
		</node>
		<node id="101117" x="478.2608695652174" y="739.1304347826087" >
		</node>
		<node id="101118" x="478.2608695652174" y="782.608695652174" >
		</node>
		<node id="101119" x="478.2608695652174" y="826.0869565217391" >
		</node>
		<node id="101120" x="478.2608695652174" y="869.5652173913044" >
		</node>
		<node id="101121" x="478.2608695652174" y="913.0434782608696" >
		</node>
		<node id="101122" x="478.2608695652174" y="956.5217391304348" >
		</node>
		<node id="101123" x="478.2608695652174" y="1000.0" >
		</node>
		<node id="101200" x="521.7391304347826" y="0.0" >
		</node>
		<node id="101201" x="521.7391304347826" y="43.47826086956522" >
		</node>
		<node id="101202" x="521.7391304347826" y="86.95652173913044" >
		</node>
		<node id="101203" x="521.7391304347826" y="130.43478260869566" >
		</node>
		<node id="101204" x="521.7391304347826" y="173.91304347826087" >
		</node>
		<node id="101205" x="521.7391304347826" y="217.3913043478261" >
		</node>
		<node id="101206" x="521.7391304347826" y="260.8695652173913" >
		</node>
		<node id="101207" x="521.7391304347826" y="304.3478260869565" >
		</node>
		<node id="101208" x="521.7391304347826" y="347.82608695652175" >
		</node>
		<node id="101209" x="521.7391304347826" y="391.304347826087" >
		</node>
		<node id="101210" x="521.7391304347826" y="434.7826086956522" >
		</node>
		<node id="101211" x="521.7391304347826" y="478.2608695652174" >
		</node>
		<node id="101212" x="521.7391304347826" y="521.7391304347826" >
		</node>
		<node id="101213" x="521.7391304347826" y="565.2173913043479" >
		</node>
		<node id="101214" x="521.7391304347826" y="608.695652173913" >
		</node>
		<node id="101215" x="521.7391304347826" y="652.1739130434783" >
		</node>
		<node id="101216" x="521.7391304347826" y="695.6521739130435" >
		</node>
		<node id="101217" x="521.7391304347826" y="739.1304347826087" >
		</node>
		<node id="101218" x="521.7391304347826" y="782.608695652174" >
		</node>
		<node id="101219" x="521.7391304347826" y="826.0869565217391" >
		</node>
		<node id="101220" x="521.7391304347826" y="869.5652173913044" >
		</node>
		<node id="101221" x="521.7391304347826" y="913.0434782608696" >
		</node>
		<node id="101222" x="521.7391304347826" y="956.5217391304348" >
		</node>
		<node id="101223" x="521.7391304347826" y="1000.0" >
		</node>
		<node id="101300" x="565.2173913043479" y="0.0" >
		</node>
		<node id="101301" x="565.2173913043479" y="43.47826086956522" >
		</node>
		<node id="101302" x="565.2173913043479" y="86.95652173913044" >
		</node>
		<node id="101303" x="565.2173913043479" y="130.43478260869566" >
		</node>
		<node id="101304" x="565.2173913043479" y="173.91304347826087" >
		</node>
		<node id="101305" x="565.2173913043479" y="217.3913043478261" >
		</node>
		<node id="101306" x="565.2173913043479" y="260.8695652173913" >
		</node>
		<node id="101307" x="565.2173913043479" y="304.3478260869565" >
		</node>
		<node id="101308" x="565.2173913043479" y="347.82608695652175" >
		</node>
		<node id="101309" x="565.2173913043479" y="391.304347826087" >
		</node>
		<node id="101310" x="565.2173913043479" y="434.7826086956522" >
		</node>
		<node id="101311" x="565.2173913043479" y="478.2608695652174" >
		</node>
		<node id="101312" x="565.2173913043479" y="521.7391304347826" >
		</node>
		<node id="101313" x="565.2173913043479" y="565.2173913043479" >
		</node>
		<node id="101314" x="565.2173913043479" y="608.695652173913" >
		</node>
		<node id="101315" x="565.2173913043479" y="652.1739130434783" >
		</node>
		<node id="101316" x="565.2173913043479" y="695.6521739130435" >
		</node>
		<node id="101317" x="565.2173913043479" y="739.1304347826087" >
		</node>
		<node id="101318" x="565.2173913043479" y="782.608695652174" >
		</node>
		<node id="101319" x="565.2173913043479" y="826.0869565217391" >
		</node>
		<node id="101320" x="565.2173913043479" y="869.5652173913044" >
		</node>
		<node id="101321" x="565.2173913043479" y="913.0434782608696" >
		</node>
		<node id="101322" x="565.2173913043479" y="956.5217391304348" >
		</node>
		<node id="101323" x="565.2173913043479" y="1000.0" >
		</node>
		<node id="101400" x="608.695652173913" y="0.0" >
		</node>
		<node id="101401" x="608.695652173913" y="43.47826086956522" >
		</node>
		<node id="101402" x="608.695652173913" y="86.95652173913044" >
		</node>
		<node id="101403" x="608.695652173913" y="130.43478260869566" >
		</node>
		<node id="101404" x="608.695652173913" y="173.91304347826087" >
		</node>
		<node id="101405" x="608.695652173913" y="217.3913043478261" >
		</node>
		<node id="101406" x="608.695652173913" y="260.8695652173913" >
		</node>
		<node id="101407" x="608.695652173913" y="304.3478260869565" >
		</node>
		<node id="101408" x="608.695652173913" y="347.82608695652175" >
		</node>
		<node id="101409" x="608.695652173913" y="391.304347826087" >
		</node>
		<node id="101410" x="608.695652173913" y="434.7826086956522" >
		</node>
		<node id="101411" x="608.695652173913" y="478.2608695652174" >
		</node>
		<node id="101412" x="608.695652173913" y="521.7391304347826" >
		</node>
		<node id="101413" x="608.695652173913" y="565.2173913043479" >
		</node>
		<node id="101414" x="608.695652173913" y="608.695652173913" >
		</node>
		<node id="101415" x="608.695652173913" y="652.1739130434783" >
		</node>
		<node id="101416" x="608.695652173913" y="695.6521739130435" >
		</node>
		<node id="101417" x="608.695652173913" y="739.1304347826087" >
		</node>
		<node id="101418" x="608.695652173913" y="782.608695652174" >
		</node>
		<node id="101419" x="608.695652173913" y="826.0869565217391" >
		</node>
		<node id="101420" x="608.695652173913" y="869.5652173913044" >
		</node>
		<node id="101421" x="608.695652173913" y="913.0434782608696" >
		</node>
		<node id="101422" x="608.695652173913" y="956.5217391304348" >
		</node>
		<node id="101423" x="608.695652173913" y="1000.0" >
		</node>
		<node id="101500" x="652.1739130434783" y="0.0" >
		</node>
		<node id="101501" x="652.1739130434783" y="43.47826086956522" >
		</node>
		<node id="101502" x="652.1739130434783" y="86.95652173913044" >
		</node>
		<node id="101503" x="652.1739130434783" y="130.43478260869566" >
		</node>
		<node id="101504" x="652.1739130434783" y="173.91304347826087" >
		</node>
		<node id="101505" x="652.1739130434783" y="217.3913043478261" >
		</node>
		<node id="101506" x="652.1739130434783" y="260.8695652173913" >
		</node>
		<node id="101507" x="652.1739130434783" y="304.3478260869565" >
		</node>
		<node id="101508" x="652.1739130434783" y="347.82608695652175" >
		</node>
		<node id="101509" x="652.1739130434783" y="391.304347826087" >
		</node>
		<node id="101510" x="652.1739130434783" y="434.7826086956522" >
		</node>
		<node id="101511" x="652.1739130434783" y="478.2608695652174" >
		</node>
		<node id="101512" x="652.1739130434783" y="521.7391304347826" >
		</node>
		<node id="101513" x="652.1739130434783" y="565.2173913043479" >
		</node>
		<node id="101514" x="652.1739130434783" y="608.695652173913" >
		</node>
		<node id="101515" x="652.1739130434783" y="652.1739130434783" >
		</node>
		<node id="101516" x="652.1739130434783" y="695.6521739130435" >
		</node>
		<node id="101517" x="652.1739130434783" y="739.1304347826087" >
		</node>
		<node id="101518" x="652.1739130434783" y="782.608695652174" >
		</node>
		<node id="101519" x="652.1739130434783" y="826.0869565217391" >
		</node>
		<node id="101520" x="652.1739130434783" y="869.5652173913044" >
		</node>
		<node id="101521" x="652.1739130434783" y="913.0434782608696" >
		</node>
		<node id="101522" x="652.1739130434783" y="956.5217391304348" >
		</node>
		<node id="101523" x="652.1739130434783" y="1000.0" >
		</node>
		<node id="101600" x="695.6521739130435" y="0.0" >
		</node>
		<node id="101601" x="695.6521739130435" y="43.47826086956522" >
		</node>
		<node id="101602" x="695.6521739130435" y="86.95652173913044" >
		</node>
		<node id="101603" x="695.6521739130435" y="130.43478260869566" >
		</node>
		<node id="101604" x="695.6521739130435" y="173.91304347826087" >
		</node>
		<node id="101605" x="695.6521739130435" y="217.3913043478261" >
		</node>
		<node id="101606" x="695.6521739130435" y="260.8695652173913" >
		</node>
		<node id="101607" x="695.6521739130435" y="304.3478260869565" >
		</node>
		<node id="101608" x="695.6521739130435" y="347.82608695652175" >
		</node>
		<node id="101609" x="695.6521739130435" y="391.304347826087" >
		</node>
		<node id="101610" x="695.6521739130435" y="434.7826086956522" >
		</node>
		<node id="101611" x="695.6521739130435" y="478.2608695652174" >
		</node>
		<node id="101612" x="695.6521739130435" y="521.7391304347826" >
		</node>
		<node id="101613" x="695.6521739130435" y="565.2173913043479" >
		</node>
		<node id="101614" x="695.6521739130435" y="608.695652173913" >
		</node>
		<node id="101615" x="695.6521739130435" y="652.1739130434783" >
		</node>
		<node id="101616" x="695.6521739130435" y="695.6521739130435" >
		</node>